CAND_R2_001 | APN-DOPO-amino
     RDKit          2D

 35 39  0  0  0  0  0  0  0  0999 V2000
   -0.7667  -10.2571    0.0000 N   0  0  0  0  0  0  0  0  0  0  0  0
    0.6428  -10.7701    0.0000 C   0  0  0  0  0  0  0  0  0  0  0  0
    2.0524  -11.2832    0.0000 C   0  0  0  0  0  0  0  0  0  0  0  0
    3.2014  -10.3190    0.0000 C   0  0  0  0  0  0  0  0  0  0  0  0
    4.6110  -10.8320    0.0000 C   0  0  0  0  0  0  0  0  0  0  0  0
    5.7600   -9.8678    0.0000 O   0  0  0  0  0  0  0  0  0  0  0  0
    5.4996   -8.3906    0.0000 C   0  0  0  0  0  0  0  0  0  0  0  0
    6.6486   -7.4264    0.0000 C   0  0  0  0  0  0  0  0  0  0  0  0
    6.3882   -5.9492    0.0000 C   0  0  0  0  0  0  0  0  0  0  0  0
    4.9786   -5.4362    0.0000 C   0  0  0  0  0  0  0  0  0  0  0  0
    3.8296   -6.4004    0.0000 C   0  0  0  0  0  0  0  0  0  0  0  0
    2.4200   -5.8874    0.0000 N   0  0  0  0  0  0  0  0  0  0  0  0
    2.1595   -4.4101    0.0000 C   0  0  0  0  0  0  0  0  0  0  0  0
    0.7500   -3.8971    0.0000 P   0  0  0  0  0  0  0  0  0  0  0  0
    0.4895   -5.3743    0.0000 O   0  0  0  0  0  0  0  0  0  0  0  0
    1.5000   -2.5981    0.0000 O   0  0  0  0  0  0  0  0  0  0  0  0
    0.7500   -1.2990    0.0000 C   0  0  0  0  0  0  0  0  0  0  0  0
    1.5000    0.0000    0.0000 C   0  0  0  0  0  0  0  0  0  0  0  0
    0.7500    1.2990    0.0000 C   0  0  0  0  0  0  0  0  0  0  0  0
   -0.7500    1.2990    0.0000 C   0  0  0  0  0  0  0  0  0  0  0  0
   -1.5000    0.0000    0.0000 C   0  0  0  0  0  0  0  0  0  0  0  0
   -0.7500   -1.2990    0.0000 C   0  0  0  0  0  0  0  0  0  0  0  0
   -1.5000   -2.5981    0.0000 C   0  0  0  0  0  0  0  0  0  0  0  0
   -3.0000   -2.5981    0.0000 C   0  0  0  0  0  0  0  0  0  0  0  0
   -3.7500   -3.8971    0.0000 C   0  0  0  0  0  0  0  0  0  0  0  0
   -3.0000   -5.1962    0.0000 C   0  0  0  0  0  0  0  0  0  0  0  0
   -1.5000   -5.1962    0.0000 C   0  0  0  0  0  0  0  0  0  0  0  0
   -0.7500   -3.8971    0.0000 C   0  0  0  0  0  0  0  0  0  0  0  0
    4.0900   -7.8776    0.0000 C   0  0  0  0  0  0  0  0  0  0  0  0
    4.8714  -12.3092    0.0000 C   0  0  0  0  0  0  0  0  0  0  0  0
    3.7224  -13.2734    0.0000 C   0  0  0  0  0  0  0  0  0  0  0  0
    3.9828  -14.7506    0.0000 N   0  0  0  0  0  0  0  0  0  0  0  0
    2.3128  -12.7604    0.0000 C   0  0  0  0  0  0  0  0  0  0  0  0
    1.1638  -13.7246    0.0000 C   0  0  0  0  0  0  0  0  0  0  0  0
    0.0147  -14.6887    0.0000 N   0  0  0  0  0  0  0  0  0  0  0  0
  1  2  3  0
  2  3  1  0
  3  4  2  0
  4  5  1  0
  5  6  1  0
  6  7  1  0
  7  8  2  0
  8  9  1  0
  9 10  2  0
 10 11  1  0
 11 12  1  0
 12 13  1  0
 13 14  1  0
 14 15  2  0
 14 16  1  0
 16 17  1  0
 17 18  2  0
 18 19  1  0
 19 20  2  0
 20 21  1  0
 21 22  2  0
 22 23  1  0
 23 24  2  0
 24 25  1  0
 25 26  2  0
 26 27  1  0
 27 28  2  0
 11 29  2  0
  5 30  2  0
 30 31  1  0
 31 32  1  0
 31 33  2  0
 33 34  1  0
 34 35  3  0
 33  3  1  0
 29  7  1  0
 28 14  1  0
 22 17  1  0
 28 23  1  0
M  END
>  <Candidate_ID>  (1) 
CAND_R2_001

>  <Candidate_Name>  (1) 
APN-DOPO-amino

>  <Parent_Seed_ID>  (1) 
TRAIN_019

>  <Parent_Name>  (1) 
APN-DOPO

>  <Transformation_Code>  (1) 
amino

>  <Design_Family>  (1) 
P-N

>  <Preparation_Type>  (1) 
Co-curing

>  <Synthesis_Level>  (1) 
B

>  <Parent_Tanimoto_r3>  (1) 
0.7052631578947368

>  <Max_Train_Tanimoto_r3>  (1) 
0.7052631578947368

>  <Risk_Flags>  (1) 
none

$$$$
CAND_R2_002 | APN-DOPO-hydroxy
     RDKit          2D

 35 39  0  0  0  0  0  0  0  0999 V2000
   -0.7667  -10.2571    0.0000 N   0  0  0  0  0  0  0  0  0  0  0  0
    0.6428  -10.7701    0.0000 C   0  0  0  0  0  0  0  0  0  0  0  0
    2.0524  -11.2832    0.0000 C   0  0  0  0  0  0  0  0  0  0  0  0
    3.2014  -10.3190    0.0000 C   0  0  0  0  0  0  0  0  0  0  0  0
    4.6110  -10.8320    0.0000 C   0  0  0  0  0  0  0  0  0  0  0  0
    5.7600   -9.8678    0.0000 O   0  0  0  0  0  0  0  0  0  0  0  0
    5.4996   -8.3906    0.0000 C   0  0  0  0  0  0  0  0  0  0  0  0
    6.6486   -7.4264    0.0000 C   0  0  0  0  0  0  0  0  0  0  0  0
    6.3882   -5.9492    0.0000 C   0  0  0  0  0  0  0  0  0  0  0  0
    4.9786   -5.4362    0.0000 C   0  0  0  0  0  0  0  0  0  0  0  0
    3.8296   -6.4004    0.0000 C   0  0  0  0  0  0  0  0  0  0  0  0
    2.4200   -5.8874    0.0000 N   0  0  0  0  0  0  0  0  0  0  0  0
    2.1595   -4.4101    0.0000 C   0  0  0  0  0  0  0  0  0  0  0  0
    0.7500   -3.8971    0.0000 P   0  0  0  0  0  0  0  0  0  0  0  0
    0.4895   -5.3743    0.0000 O   0  0  0  0  0  0  0  0  0  0  0  0
    1.5000   -2.5981    0.0000 O   0  0  0  0  0  0  0  0  0  0  0  0
    0.7500   -1.2990    0.0000 C   0  0  0  0  0  0  0  0  0  0  0  0
    1.5000    0.0000    0.0000 C   0  0  0  0  0  0  0  0  0  0  0  0
    0.7500    1.2990    0.0000 C   0  0  0  0  0  0  0  0  0  0  0  0
   -0.7500    1.2990    0.0000 C   0  0  0  0  0  0  0  0  0  0  0  0
   -1.5000    0.0000    0.0000 C   0  0  0  0  0  0  0  0  0  0  0  0
   -0.7500   -1.2990    0.0000 C   0  0  0  0  0  0  0  0  0  0  0  0
   -1.5000   -2.5981    0.0000 C   0  0  0  0  0  0  0  0  0  0  0  0
   -3.0000   -2.5981    0.0000 C   0  0  0  0  0  0  0  0  0  0  0  0
   -3.7500   -3.8971    0.0000 C   0  0  0  0  0  0  0  0  0  0  0  0
   -3.0000   -5.1962    0.0000 C   0  0  0  0  0  0  0  0  0  0  0  0
   -1.5000   -5.1962    0.0000 C   0  0  0  0  0  0  0  0  0  0  0  0
   -0.7500   -3.8971    0.0000 C   0  0  0  0  0  0  0  0  0  0  0  0
    4.0900   -7.8776    0.0000 C   0  0  0  0  0  0  0  0  0  0  0  0
    4.8714  -12.3092    0.0000 C   0  0  0  0  0  0  0  0  0  0  0  0
    3.7224  -13.2734    0.0000 C   0  0  0  0  0  0  0  0  0  0  0  0
    3.9828  -14.7506    0.0000 O   0  0  0  0  0  0  0  0  0  0  0  0
    2.3128  -12.7604    0.0000 C   0  0  0  0  0  0  0  0  0  0  0  0
    1.1638  -13.7246    0.0000 C   0  0  0  0  0  0  0  0  0  0  0  0
    0.0147  -14.6887    0.0000 N   0  0  0  0  0  0  0  0  0  0  0  0
  1  2  3  0
  2  3  1  0
  3  4  2  0
  4  5  1  0
  5  6  1  0
  6  7  1  0
  7  8  2  0
  8  9  1  0
  9 10  2  0
 10 11  1  0
 11 12  1  0
 12 13  1  0
 13 14  1  0
 14 15  2  0
 14 16  1  0
 16 17  1  0
 17 18  2  0
 18 19  1  0
 19 20  2  0
 20 21  1  0
 21 22  2  0
 22 23  1  0
 23 24  2  0
 24 25  1  0
 25 26  2  0
 26 27  1  0
 27 28  2  0
 11 29  2  0
  5 30  2  0
 30 31  1  0
 31 32  1  0
 31 33  2  0
 33 34  1  0
 34 35  3  0
 33  3  1  0
 29  7  1  0
 28 14  1  0
 22 17  1  0
 28 23  1  0
M  END
>  <Candidate_ID>  (2) 
CAND_R2_002

>  <Candidate_Name>  (2) 
APN-DOPO-hydroxy

>  <Parent_Seed_ID>  (2) 
TRAIN_019

>  <Parent_Name>  (2) 
APN-DOPO

>  <Transformation_Code>  (2) 
hydroxy

>  <Design_Family>  (2) 
P-N

>  <Preparation_Type>  (2) 
Additive

>  <Synthesis_Level>  (2) 
B

>  <Parent_Tanimoto_r3>  (2) 
0.7052631578947368

>  <Max_Train_Tanimoto_r3>  (2) 
0.7052631578947368

>  <Risk_Flags>  (2) 
none

$$$$
CAND_R2_003 | APN-DOPO-hydroxymethyl
     RDKit          2D

 36 40  0  0  0  0  0  0  0  0999 V2000
   -0.7667  -10.2571    0.0000 N   0  0  0  0  0  0  0  0  0  0  0  0
    0.6428  -10.7701    0.0000 C   0  0  0  0  0  0  0  0  0  0  0  0
    2.0524  -11.2832    0.0000 C   0  0  0  0  0  0  0  0  0  0  0  0
    3.2014  -10.3190    0.0000 C   0  0  0  0  0  0  0  0  0  0  0  0
    4.6110  -10.8320    0.0000 C   0  0  0  0  0  0  0  0  0  0  0  0
    5.7600   -9.8678    0.0000 O   0  0  0  0  0  0  0  0  0  0  0  0
    5.4996   -8.3906    0.0000 C   0  0  0  0  0  0  0  0  0  0  0  0
    6.6486   -7.4264    0.0000 C   0  0  0  0  0  0  0  0  0  0  0  0
    6.3882   -5.9492    0.0000 C   0  0  0  0  0  0  0  0  0  0  0  0
    4.9786   -5.4362    0.0000 C   0  0  0  0  0  0  0  0  0  0  0  0
    3.8296   -6.4004    0.0000 C   0  0  0  0  0  0  0  0  0  0  0  0
    2.4200   -5.8874    0.0000 N   0  0  0  0  0  0  0  0  0  0  0  0
    2.1595   -4.4101    0.0000 C   0  0  0  0  0  0  0  0  0  0  0  0
    0.7500   -3.8971    0.0000 P   0  0  0  0  0  0  0  0  0  0  0  0
    0.4895   -5.3743    0.0000 O   0  0  0  0  0  0  0  0  0  0  0  0
    1.5000   -2.5981    0.0000 O   0  0  0  0  0  0  0  0  0  0  0  0
    0.7500   -1.2990    0.0000 C   0  0  0  0  0  0  0  0  0  0  0  0
    1.5000    0.0000    0.0000 C   0  0  0  0  0  0  0  0  0  0  0  0
    0.7500    1.2990    0.0000 C   0  0  0  0  0  0  0  0  0  0  0  0
   -0.7500    1.2990    0.0000 C   0  0  0  0  0  0  0  0  0  0  0  0
   -1.5000    0.0000    0.0000 C   0  0  0  0  0  0  0  0  0  0  0  0
   -0.7500   -1.2990    0.0000 C   0  0  0  0  0  0  0  0  0  0  0  0
   -1.5000   -2.5981    0.0000 C   0  0  0  0  0  0  0  0  0  0  0  0
   -3.0000   -2.5981    0.0000 C   0  0  0  0  0  0  0  0  0  0  0  0
   -3.7500   -3.8971    0.0000 C   0  0  0  0  0  0  0  0  0  0  0  0
   -3.0000   -5.1962    0.0000 C   0  0  0  0  0  0  0  0  0  0  0  0
   -1.5000   -5.1962    0.0000 C   0  0  0  0  0  0  0  0  0  0  0  0
   -0.7500   -3.8971    0.0000 C   0  0  0  0  0  0  0  0  0  0  0  0
    4.0900   -7.8776    0.0000 C   0  0  0  0  0  0  0  0  0  0  0  0
    4.8714  -12.3092    0.0000 C   0  0  0  0  0  0  0  0  0  0  0  0
    3.7224  -13.2734    0.0000 C   0  0  0  0  0  0  0  0  0  0  0  0
    3.9828  -14.7506    0.0000 C   0  0  0  0  0  0  0  0  0  0  0  0
    2.8338  -15.7148    0.0000 O   0  0  0  0  0  0  0  0  0  0  0  0
    2.3128  -12.7604    0.0000 C   0  0  0  0  0  0  0  0  0  0  0  0
    1.1638  -13.7246    0.0000 C   0  0  0  0  0  0  0  0  0  0  0  0
    0.0147  -14.6887    0.0000 N   0  0  0  0  0  0  0  0  0  0  0  0
  1  2  3  0
  2  3  1  0
  3  4  2  0
  4  5  1  0
  5  6  1  0
  6  7  1  0
  7  8  2  0
  8  9  1  0
  9 10  2  0
 10 11  1  0
 11 12  1  0
 12 13  1  0
 13 14  1  0
 14 15  2  0
 14 16  1  0
 16 17  1  0
 17 18  2  0
 18 19  1  0
 19 20  2  0
 20 21  1  0
 21 22  2  0
 22 23  1  0
 23 24  2  0
 24 25  1  0
 25 26  2  0
 26 27  1  0
 27 28  2  0
 11 29  2  0
  5 30  2  0
 30 31  1  0
 31 32  1  0
 32 33  1  0
 31 34  2  0
 34 35  1  0
 35 36  3  0
 34  3  1  0
 29  7  1  0
 28 14  1  0
 22 17  1  0
 28 23  1  0
M  END
>  <Candidate_ID>  (3) 
CAND_R2_003

>  <Candidate_Name>  (3) 
APN-DOPO-hydroxymethyl

>  <Parent_Seed_ID>  (3) 
TRAIN_019

>  <Parent_Name>  (3) 
APN-DOPO

>  <Transformation_Code>  (3) 
hydroxymethyl

>  <Design_Family>  (3) 
P-N

>  <Preparation_Type>  (3) 
Additive

>  <Synthesis_Level>  (3) 
B

>  <Parent_Tanimoto_r3>  (3) 
0.6979166666666666

>  <Max_Train_Tanimoto_r3>  (3) 
0.6979166666666666

>  <Risk_Flags>  (3) 
candidate may be outside strict in-domain threshold

$$$$
CAND_R2_004 | APN-DOPO-carboxamide
     RDKit          2D

 37 41  0  0  0  0  0  0  0  0999 V2000
   -0.7667  -10.2571    0.0000 N   0  0  0  0  0  0  0  0  0  0  0  0
    0.6428  -10.7701    0.0000 C   0  0  0  0  0  0  0  0  0  0  0  0
    2.0524  -11.2832    0.0000 C   0  0  0  0  0  0  0  0  0  0  0  0
    3.2014  -10.3190    0.0000 C   0  0  0  0  0  0  0  0  0  0  0  0
    4.6110  -10.8320    0.0000 C   0  0  0  0  0  0  0  0  0  0  0  0
    5.7600   -9.8678    0.0000 O   0  0  0  0  0  0  0  0  0  0  0  0
    5.4996   -8.3906    0.0000 C   0  0  0  0  0  0  0  0  0  0  0  0
    6.6486   -7.4264    0.0000 C   0  0  0  0  0  0  0  0  0  0  0  0
    6.3882   -5.9492    0.0000 C   0  0  0  0  0  0  0  0  0  0  0  0
    4.9786   -5.4362    0.0000 C   0  0  0  0  0  0  0  0  0  0  0  0
    3.8296   -6.4004    0.0000 C   0  0  0  0  0  0  0  0  0  0  0  0
    2.4200   -5.8874    0.0000 N   0  0  0  0  0  0  0  0  0  0  0  0
    2.1595   -4.4101    0.0000 C   0  0  0  0  0  0  0  0  0  0  0  0
    0.7500   -3.8971    0.0000 P   0  0  0  0  0  0  0  0  0  0  0  0
    0.4895   -5.3743    0.0000 O   0  0  0  0  0  0  0  0  0  0  0  0
    1.5000   -2.5981    0.0000 O   0  0  0  0  0  0  0  0  0  0  0  0
    0.7500   -1.2990    0.0000 C   0  0  0  0  0  0  0  0  0  0  0  0
    1.5000    0.0000    0.0000 C   0  0  0  0  0  0  0  0  0  0  0  0
    0.7500    1.2990    0.0000 C   0  0  0  0  0  0  0  0  0  0  0  0
   -0.7500    1.2990    0.0000 C   0  0  0  0  0  0  0  0  0  0  0  0
   -1.5000    0.0000    0.0000 C   0  0  0  0  0  0  0  0  0  0  0  0
   -0.7500   -1.2990    0.0000 C   0  0  0  0  0  0  0  0  0  0  0  0
   -1.5000   -2.5981    0.0000 C   0  0  0  0  0  0  0  0  0  0  0  0
   -3.0000   -2.5981    0.0000 C   0  0  0  0  0  0  0  0  0  0  0  0
   -3.7500   -3.8971    0.0000 C   0  0  0  0  0  0  0  0  0  0  0  0
   -3.0000   -5.1962    0.0000 C   0  0  0  0  0  0  0  0  0  0  0  0
   -1.5000   -5.1962    0.0000 C   0  0  0  0  0  0  0  0  0  0  0  0
   -0.7500   -3.8971    0.0000 C   0  0  0  0  0  0  0  0  0  0  0  0
    4.0900   -7.8776    0.0000 C   0  0  0  0  0  0  0  0  0  0  0  0
    4.8714  -12.3092    0.0000 C   0  0  0  0  0  0  0  0  0  0  0  0
    3.7224  -13.2734    0.0000 C   0  0  0  0  0  0  0  0  0  0  0  0
    3.9828  -14.7506    0.0000 C   0  0  0  0  0  0  0  0  0  0  0  0
    2.8338  -15.7148    0.0000 N   0  0  0  0  0  0  0  0  0  0  0  0
    5.3924  -15.2637    0.0000 O   0  0  0  0  0  0  0  0  0  0  0  0
    2.3128  -12.7604    0.0000 C   0  0  0  0  0  0  0  0  0  0  0  0
    1.1638  -13.7246    0.0000 C   0  0  0  0  0  0  0  0  0  0  0  0
    0.0147  -14.6887    0.0000 N   0  0  0  0  0  0  0  0  0  0  0  0
  1  2  3  0
  2  3  1  0
  3  4  2  0
  4  5  1  0
  5  6  1  0
  6  7  1  0
  7  8  2  0
  8  9  1  0
  9 10  2  0
 10 11  1  0
 11 12  1  0
 12 13  1  0
 13 14  1  0
 14 15  2  0
 14 16  1  0
 16 17  1  0
 17 18  2  0
 18 19  1  0
 19 20  2  0
 20 21  1  0
 21 22  2  0
 22 23  1  0
 23 24  2  0
 24 25  1  0
 25 26  2  0
 26 27  1  0
 27 28  2  0
 11 29  2  0
  5 30  2  0
 30 31  1  0
 31 32  1  0
 32 33  1  0
 32 34  2  0
 31 35  2  0
 35 36  1  0
 36 37  3  0
 35  3  1  0
 29  7  1  0
 28 14  1  0
 22 17  1  0
 28 23  1  0
M  END
>  <Candidate_ID>  (4) 
CAND_R2_004

>  <Candidate_Name>  (4) 
APN-DOPO-carboxamide

>  <Parent_Seed_ID>  (4) 
TRAIN_019

>  <Parent_Name>  (4) 
APN-DOPO

>  <Transformation_Code>  (4) 
carboxamide

>  <Design_Family>  (4) 
P-N

>  <Preparation_Type>  (4) 
Additive

>  <Synthesis_Level>  (4) 
B

>  <Parent_Tanimoto_r3>  (4) 
0.6767676767676768

>  <Max_Train_Tanimoto_r3>  (4) 
0.6767676767676768

>  <Risk_Flags>  (4) 
candidate may be outside strict in-domain threshold

$$$$
CAND_R2_005 | APN-DOPO-boronic-acid
     RDKit          2D

 37 41  0  0  0  0  0  0  0  0999 V2000
   -0.7667  -10.2571    0.0000 N   0  0  0  0  0  0  0  0  0  0  0  0
    0.6428  -10.7701    0.0000 C   0  0  0  0  0  0  0  0  0  0  0  0
    2.0524  -11.2832    0.0000 C   0  0  0  0  0  0  0  0  0  0  0  0
    3.2014  -10.3190    0.0000 C   0  0  0  0  0  0  0  0  0  0  0  0
    4.6110  -10.8320    0.0000 C   0  0  0  0  0  0  0  0  0  0  0  0
    5.7600   -9.8678    0.0000 O   0  0  0  0  0  0  0  0  0  0  0  0
    5.4996   -8.3906    0.0000 C   0  0  0  0  0  0  0  0  0  0  0  0
    6.6486   -7.4264    0.0000 C   0  0  0  0  0  0  0  0  0  0  0  0
    6.3882   -5.9492    0.0000 C   0  0  0  0  0  0  0  0  0  0  0  0
    4.9786   -5.4362    0.0000 C   0  0  0  0  0  0  0  0  0  0  0  0
    3.8296   -6.4004    0.0000 C   0  0  0  0  0  0  0  0  0  0  0  0
    2.4200   -5.8874    0.0000 N   0  0  0  0  0  0  0  0  0  0  0  0
    2.1595   -4.4101    0.0000 C   0  0  0  0  0  0  0  0  0  0  0  0
    0.7500   -3.8971    0.0000 P   0  0  0  0  0  0  0  0  0  0  0  0
    0.4895   -5.3743    0.0000 O   0  0  0  0  0  0  0  0  0  0  0  0
    1.5000   -2.5981    0.0000 O   0  0  0  0  0  0  0  0  0  0  0  0
    0.7500   -1.2990    0.0000 C   0  0  0  0  0  0  0  0  0  0  0  0
    1.5000    0.0000    0.0000 C   0  0  0  0  0  0  0  0  0  0  0  0
    0.7500    1.2990    0.0000 C   0  0  0  0  0  0  0  0  0  0  0  0
   -0.7500    1.2990    0.0000 C   0  0  0  0  0  0  0  0  0  0  0  0
   -1.5000    0.0000    0.0000 C   0  0  0  0  0  0  0  0  0  0  0  0
   -0.7500   -1.2990    0.0000 C   0  0  0  0  0  0  0  0  0  0  0  0
   -1.5000   -2.5981    0.0000 C   0  0  0  0  0  0  0  0  0  0  0  0
   -3.0000   -2.5981    0.0000 C   0  0  0  0  0  0  0  0  0  0  0  0
   -3.7500   -3.8971    0.0000 C   0  0  0  0  0  0  0  0  0  0  0  0
   -3.0000   -5.1962    0.0000 C   0  0  0  0  0  0  0  0  0  0  0  0
   -1.5000   -5.1962    0.0000 C   0  0  0  0  0  0  0  0  0  0  0  0
   -0.7500   -3.8971    0.0000 C   0  0  0  0  0  0  0  0  0  0  0  0
    4.0900   -7.8776    0.0000 C   0  0  0  0  0  0  0  0  0  0  0  0
    4.8714  -12.3092    0.0000 C   0  0  0  0  0  0  0  0  0  0  0  0
    3.7224  -13.2734    0.0000 C   0  0  0  0  0  0  0  0  0  0  0  0
    3.9828  -14.7506    0.0000 B   0  0  0  0  0  0  0  0  0  0  0  0
    2.8338  -15.7148    0.0000 O   0  0  0  0  0  0  0  0  0  0  0  0
    5.3924  -15.2637    0.0000 O   0  0  0  0  0  0  0  0  0  0  0  0
    2.3128  -12.7604    0.0000 C   0  0  0  0  0  0  0  0  0  0  0  0
    1.1638  -13.7246    0.0000 C   0  0  0  0  0  0  0  0  0  0  0  0
    0.0147  -14.6887    0.0000 N   0  0  0  0  0  0  0  0  0  0  0  0
  1  2  3  0
  2  3  1  0
  3  4  2  0
  4  5  1  0
  5  6  1  0
  6  7  1  0
  7  8  2  0
  8  9  1  0
  9 10  2  0
 10 11  1  0
 11 12  1  0
 12 13  1  0
 13 14  1  0
 14 15  2  0
 14 16  1  0
 16 17  1  0
 17 18  2  0
 18 19  1  0
 19 20  2  0
 20 21  1  0
 21 22  2  0
 22 23  1  0
 23 24  2  0
 24 25  1  0
 25 26  2  0
 26 27  1  0
 27 28  2  0
 11 29  2  0
  5 30  2  0
 30 31  1  0
 31 32  1  0
 32 33  1  0
 32 34  1  0
 31 35  2  0
 35 36  1  0
 36 37  3  0
 35  3  1  0
 29  7  1  0
 28 14  1  0
 22 17  1  0
 28 23  1  0
M  END
>  <Candidate_ID>  (5) 
CAND_R2_005

>  <Candidate_Name>  (5) 
APN-DOPO-boronic-acid

>  <Parent_Seed_ID>  (5) 
TRAIN_019

>  <Parent_Name>  (5) 
APN-DOPO

>  <Transformation_Code>  (5) 
boronic_acid

>  <Design_Family>  (5) 
P-N-B

>  <Preparation_Type>  (5) 
Additive

>  <Synthesis_Level>  (5) 
B

>  <Parent_Tanimoto_r3>  (5) 
0.6836734693877551

>  <Max_Train_Tanimoto_r3>  (5) 
0.6836734693877551

>  <Risk_Flags>  (5) 
candidate may be outside strict in-domain threshold

$$$$
CAND_R2_006 | APN-DOPO-pinacol-boronate
     RDKit          2D

 43 48  0  0  0  0  0  0  0  0999 V2000
    6.6214  -16.9459    0.0000 C   0  0  0  0  0  0  0  0  0  0  0  0
    5.1223  -16.8936    0.0000 C   0  0  0  0  0  0  0  0  0  0  0  0
    5.2269  -18.3899    0.0000 C   0  0  0  0  0  0  0  0  0  0  0  0
    5.3310  -15.4082    0.0000 O   0  0  0  0  0  0  0  0  0  0  0  0
    3.9828  -14.7506    0.0000 B   0  0  0  0  0  0  0  0  0  0  0  0
    3.7224  -13.2734    0.0000 C   0  0  0  0  0  0  0  0  0  0  0  0
    4.8714  -12.3092    0.0000 C   0  0  0  0  0  0  0  0  0  0  0  0
    4.6110  -10.8320    0.0000 C   0  0  0  0  0  0  0  0  0  0  0  0
    5.7600   -9.8678    0.0000 O   0  0  0  0  0  0  0  0  0  0  0  0
    5.4996   -8.3906    0.0000 C   0  0  0  0  0  0  0  0  0  0  0  0
    6.6486   -7.4264    0.0000 C   0  0  0  0  0  0  0  0  0  0  0  0
    6.3882   -5.9492    0.0000 C   0  0  0  0  0  0  0  0  0  0  0  0
    4.9786   -5.4362    0.0000 C   0  0  0  0  0  0  0  0  0  0  0  0
    3.8296   -6.4004    0.0000 C   0  0  0  0  0  0  0  0  0  0  0  0
    2.4200   -5.8874    0.0000 N   0  0  0  0  0  0  0  0  0  0  0  0
    2.1595   -4.4101    0.0000 C   0  0  0  0  0  0  0  0  0  0  0  0
    0.7500   -3.8971    0.0000 P   0  0  0  0  0  0  0  0  0  0  0  0
    0.4895   -5.3743    0.0000 O   0  0  0  0  0  0  0  0  0  0  0  0
    1.5000   -2.5981    0.0000 O   0  0  0  0  0  0  0  0  0  0  0  0
    0.7500   -1.2990    0.0000 C   0  0  0  0  0  0  0  0  0  0  0  0
    1.5000    0.0000    0.0000 C   0  0  0  0  0  0  0  0  0  0  0  0
    0.7500    1.2990    0.0000 C   0  0  0  0  0  0  0  0  0  0  0  0
   -0.7500    1.2990    0.0000 C   0  0  0  0  0  0  0  0  0  0  0  0
   -1.5000    0.0000    0.0000 C   0  0  0  0  0  0  0  0  0  0  0  0
   -0.7500   -1.2990    0.0000 C   0  0  0  0  0  0  0  0  0  0  0  0
   -1.5000   -2.5981    0.0000 C   0  0  0  0  0  0  0  0  0  0  0  0
   -3.0000   -2.5981    0.0000 C   0  0  0  0  0  0  0  0  0  0  0  0
   -3.7500   -3.8971    0.0000 C   0  0  0  0  0  0  0  0  0  0  0  0
   -3.0000   -5.1962    0.0000 C   0  0  0  0  0  0  0  0  0  0  0  0
   -1.5000   -5.1962    0.0000 C   0  0  0  0  0  0  0  0  0  0  0  0
   -0.7500   -3.8971    0.0000 C   0  0  0  0  0  0  0  0  0  0  0  0
    4.0900   -7.8776    0.0000 C   0  0  0  0  0  0  0  0  0  0  0  0
    3.2014  -10.3190    0.0000 C   0  0  0  0  0  0  0  0  0  0  0  0
    2.0524  -11.2832    0.0000 C   0  0  0  0  0  0  0  0  0  0  0  0
    0.6428  -10.7701    0.0000 C   0  0  0  0  0  0  0  0  0  0  0  0
   -0.7667  -10.2571    0.0000 N   0  0  0  0  0  0  0  0  0  0  0  0
    2.3128  -12.7604    0.0000 C   0  0  0  0  0  0  0  0  0  0  0  0
    1.1638  -13.7246    0.0000 C   0  0  0  0  0  0  0  0  0  0  0  0
    0.0147  -14.6887    0.0000 N   0  0  0  0  0  0  0  0  0  0  0  0
    2.9409  -15.8296    0.0000 O   0  0  0  0  0  0  0  0  0  0  0  0
    3.6451  -17.1541    0.0000 C   0  0  0  0  0  0  0  0  0  0  0  0
    4.0585  -18.5959    0.0000 C   0  0  0  0  0  0  0  0  0  0  0  0
    2.2543  -17.7160    0.0000 C   0  0  0  0  0  0  0  0  0  0  0  0
  1  2  1  0
  2  3  1  0
  2  4  1  0
  4  5  1  0
  5  6  1  0
  6  7  2  0
  7  8  1  0
  8  9  1  0
  9 10  1  0
 10 11  2  0
 11 12  1  0
 12 13  2  0
 13 14  1  0
 14 15  1  0
 15 16  1  0
 16 17  1  0
 17 18  2  0
 17 19  1  0
 19 20  1  0
 20 21  2  0
 21 22  1  0
 22 23  2  0
 23 24  1  0
 24 25  2  0
 25 26  1  0
 26 27  2  0
 27 28  1  0
 28 29  2  0
 29 30  1  0
 30 31  2  0
 14 32  2  0
  8 33  2  0
 33 34  1  0
 34 35  1  0
 35 36  3  0
 34 37  2  0
 37 38  1  0
 38 39  3  0
  5 40  1  0
 40 41  1  0
 41 42  1  0
 41 43  1  0
 41  2  1  0
 37  6  1  0
 32 10  1  0
 31 17  1  0
 25 20  1  0
 31 26  1  0
M  END
>  <Candidate_ID>  (6) 
CAND_R2_006

>  <Candidate_Name>  (6) 
APN-DOPO-pinacol-boronate

>  <Parent_Seed_ID>  (6) 
TRAIN_019

>  <Parent_Name>  (6) 
APN-DOPO

>  <Transformation_Code>  (6) 
pinacol_boronate

>  <Design_Family>  (6) 
P-N-B

>  <Preparation_Type>  (6) 
Additive

>  <Synthesis_Level>  (6) 
B

>  <Parent_Tanimoto_r3>  (6) 
0.6320754716981132

>  <Max_Train_Tanimoto_r3>  (6) 
0.6320754716981132

>  <Risk_Flags>  (6) 
large structural change from parent; candidate may be outside strict in-domain threshold

$$$$
CAND_R2_007 | APN-DOPO-trimethoxysilyl
     RDKit          2D

 41 45  0  0  0  0  0  0  0  0999 V2000
   -1.9158  -11.2213    0.0000 C   0  0  0  0  0  0  0  0  0  0  0  0
   -0.7667  -10.2571    0.0000 O   0  0  0  0  0  0  0  0  0  0  0  0
    0.6428  -10.7701    0.0000 Si  0  0  0  0  0  4  0  0  0  0  0  0
    1.1559   -9.3606    0.0000 O   0  0  0  0  0  0  0  0  0  0  0  0
    0.1917   -8.2115    0.0000 C   0  0  0  0  0  0  0  0  0  0  0  0
    0.1298  -12.1797    0.0000 O   0  0  0  0  0  0  0  0  0  0  0  0
   -1.3474  -12.4402    0.0000 C   0  0  0  0  0  0  0  0  0  0  0  0
    2.0524  -11.2832    0.0000 C   0  0  0  0  0  0  0  0  0  0  0  0
    3.2014  -10.3190    0.0000 C   0  0  0  0  0  0  0  0  0  0  0  0
    4.6110  -10.8320    0.0000 C   0  0  0  0  0  0  0  0  0  0  0  0
    5.7600   -9.8678    0.0000 O   0  0  0  0  0  0  0  0  0  0  0  0
    5.4996   -8.3906    0.0000 C   0  0  0  0  0  0  0  0  0  0  0  0
    6.6486   -7.4264    0.0000 C   0  0  0  0  0  0  0  0  0  0  0  0
    6.3882   -5.9492    0.0000 C   0  0  0  0  0  0  0  0  0  0  0  0
    4.9786   -5.4362    0.0000 C   0  0  0  0  0  0  0  0  0  0  0  0
    3.8296   -6.4004    0.0000 C   0  0  0  0  0  0  0  0  0  0  0  0
    2.4200   -5.8874    0.0000 N   0  0  0  0  0  0  0  0  0  0  0  0
    2.1595   -4.4101    0.0000 C   0  0  0  0  0  0  0  0  0  0  0  0
    0.7500   -3.8971    0.0000 P   0  0  0  0  0  0  0  0  0  0  0  0
    0.4895   -5.3743    0.0000 O   0  0  0  0  0  0  0  0  0  0  0  0
    1.5000   -2.5981    0.0000 O   0  0  0  0  0  0  0  0  0  0  0  0
    0.7500   -1.2990    0.0000 C   0  0  0  0  0  0  0  0  0  0  0  0
    1.5000    0.0000    0.0000 C   0  0  0  0  0  0  0  0  0  0  0  0
    0.7500    1.2990    0.0000 C   0  0  0  0  0  0  0  0  0  0  0  0
   -0.7500    1.2990    0.0000 C   0  0  0  0  0  0  0  0  0  0  0  0
   -1.5000    0.0000    0.0000 C   0  0  0  0  0  0  0  0  0  0  0  0
   -0.7500   -1.2990    0.0000 C   0  0  0  0  0  0  0  0  0  0  0  0
   -1.5000   -2.5981    0.0000 C   0  0  0  0  0  0  0  0  0  0  0  0
   -3.0000   -2.5981    0.0000 C   0  0  0  0  0  0  0  0  0  0  0  0
   -3.7500   -3.8971    0.0000 C   0  0  0  0  0  0  0  0  0  0  0  0
   -3.0000   -5.1962    0.0000 C   0  0  0  0  0  0  0  0  0  0  0  0
   -1.5000   -5.1962    0.0000 C   0  0  0  0  0  0  0  0  0  0  0  0
   -0.7500   -3.8971    0.0000 C   0  0  0  0  0  0  0  0  0  0  0  0
    4.0900   -7.8776    0.0000 C   0  0  0  0  0  0  0  0  0  0  0  0
    4.8714  -12.3092    0.0000 C   0  0  0  0  0  0  0  0  0  0  0  0
    3.7224  -13.2734    0.0000 C   0  0  0  0  0  0  0  0  0  0  0  0
    3.9828  -14.7506    0.0000 C   0  0  0  0  0  0  0  0  0  0  0  0
    4.2433  -16.2278    0.0000 N   0  0  0  0  0  0  0  0  0  0  0  0
    2.3128  -12.7604    0.0000 C   0  0  0  0  0  0  0  0  0  0  0  0
    1.1638  -13.7246    0.0000 C   0  0  0  0  0  0  0  0  0  0  0  0
    0.0147  -14.6887    0.0000 N   0  0  0  0  0  0  0  0  0  0  0  0
  1  2  1  0
  2  3  1  0
  3  4  1  0
  4  5  1  0
  3  6  1  0
  6  7  1  0
  3  8  1  0
  8  9  2  0
  9 10  1  0
 10 11  1  0
 11 12  1  0
 12 13  2  0
 13 14  1  0
 14 15  2  0
 15 16  1  0
 16 17  1  0
 17 18  1  0
 18 19  1  0
 19 20  2  0
 19 21  1  0
 21 22  1  0
 22 23  2  0
 23 24  1  0
 24 25  2  0
 25 26  1  0
 26 27  2  0
 27 28  1  0
 28 29  2  0
 29 30  1  0
 30 31  2  0
 31 32  1  0
 32 33  2  0
 16 34  2  0
 10 35  2  0
 35 36  1  0
 36 37  1  0
 37 38  3  0
 36 39  2  0
 39 40  1  0
 40 41  3  0
 39  8  1  0
 34 12  1  0
 33 19  1  0
 27 22  1  0
 33 28  1  0
M  END
>  <Candidate_ID>  (7) 
CAND_R2_007

>  <Candidate_Name>  (7) 
APN-DOPO-trimethoxysilyl

>  <Parent_Seed_ID>  (7) 
TRAIN_019

>  <Parent_Name>  (7) 
APN-DOPO

>  <Transformation_Code>  (7) 
trimethoxysilyl

>  <Design_Family>  (7) 
P-N-Si

>  <Preparation_Type>  (7) 
Additive + Secondary Crosslinking

>  <Synthesis_Level>  (7) 
B

>  <Parent_Tanimoto_r3>  (7) 
0.6633663366336634

>  <Max_Train_Tanimoto_r3>  (7) 
0.6633663366336634

>  <Risk_Flags>  (7) 
candidate may be outside strict in-domain threshold

$$$$
CAND_R2_008 | APN-DOPO-triethoxysilyl
     RDKit          2D

 44 48  0  0  0  0  0  0  0  0999 V2000
   -3.3253  -10.7083    0.0000 C   0  0  0  0  0  0  0  0  0  0  0  0
   -1.9158  -11.2213    0.0000 C   0  0  0  0  0  0  0  0  0  0  0  0
   -0.7667  -10.2571    0.0000 O   0  0  0  0  0  0  0  0  0  0  0  0
    0.6428  -10.7701    0.0000 Si  0  0  0  0  0  4  0  0  0  0  0  0
    1.1559   -9.3606    0.0000 O   0  0  0  0  0  0  0  0  0  0  0  0
    0.1917   -8.2115    0.0000 C   0  0  0  0  0  0  0  0  0  0  0  0
    0.7047   -6.8020    0.0000 C   0  0  0  0  0  0  0  0  0  0  0  0
    0.1298  -12.1797    0.0000 O   0  0  0  0  0  0  0  0  0  0  0  0
   -1.3474  -12.4402    0.0000 C   0  0  0  0  0  0  0  0  0  0  0  0
   -1.8604  -13.8497    0.0000 C   0  0  0  0  0  0  0  0  0  0  0  0
    2.0524  -11.2832    0.0000 C   0  0  0  0  0  0  0  0  0  0  0  0
    3.2014  -10.3190    0.0000 C   0  0  0  0  0  0  0  0  0  0  0  0
    4.6110  -10.8320    0.0000 C   0  0  0  0  0  0  0  0  0  0  0  0
    5.7600   -9.8678    0.0000 O   0  0  0  0  0  0  0  0  0  0  0  0
    5.4996   -8.3906    0.0000 C   0  0  0  0  0  0  0  0  0  0  0  0
    6.6486   -7.4264    0.0000 C   0  0  0  0  0  0  0  0  0  0  0  0
    6.3882   -5.9492    0.0000 C   0  0  0  0  0  0  0  0  0  0  0  0
    4.9786   -5.4362    0.0000 C   0  0  0  0  0  0  0  0  0  0  0  0
    3.8296   -6.4004    0.0000 C   0  0  0  0  0  0  0  0  0  0  0  0
    2.4200   -5.8874    0.0000 N   0  0  0  0  0  0  0  0  0  0  0  0
    2.1595   -4.4101    0.0000 C   0  0  0  0  0  0  0  0  0  0  0  0
    0.7500   -3.8971    0.0000 P   0  0  0  0  0  0  0  0  0  0  0  0
    0.4895   -5.3743    0.0000 O   0  0  0  0  0  0  0  0  0  0  0  0
    1.5000   -2.5981    0.0000 O   0  0  0  0  0  0  0  0  0  0  0  0
    0.7500   -1.2990    0.0000 C   0  0  0  0  0  0  0  0  0  0  0  0
    1.5000    0.0000    0.0000 C   0  0  0  0  0  0  0  0  0  0  0  0
    0.7500    1.2990    0.0000 C   0  0  0  0  0  0  0  0  0  0  0  0
   -0.7500    1.2990    0.0000 C   0  0  0  0  0  0  0  0  0  0  0  0
   -1.5000    0.0000    0.0000 C   0  0  0  0  0  0  0  0  0  0  0  0
   -0.7500   -1.2990    0.0000 C   0  0  0  0  0  0  0  0  0  0  0  0
   -1.5000   -2.5981    0.0000 C   0  0  0  0  0  0  0  0  0  0  0  0
   -3.0000   -2.5981    0.0000 C   0  0  0  0  0  0  0  0  0  0  0  0
   -3.7500   -3.8971    0.0000 C   0  0  0  0  0  0  0  0  0  0  0  0
   -3.0000   -5.1962    0.0000 C   0  0  0  0  0  0  0  0  0  0  0  0
   -1.5000   -5.1962    0.0000 C   0  0  0  0  0  0  0  0  0  0  0  0
   -0.7500   -3.8971    0.0000 C   0  0  0  0  0  0  0  0  0  0  0  0
    4.0900   -7.8776    0.0000 C   0  0  0  0  0  0  0  0  0  0  0  0
    4.8714  -12.3092    0.0000 C   0  0  0  0  0  0  0  0  0  0  0  0
    3.7224  -13.2734    0.0000 C   0  0  0  0  0  0  0  0  0  0  0  0
    3.9828  -14.7506    0.0000 C   0  0  0  0  0  0  0  0  0  0  0  0
    4.2433  -16.2278    0.0000 N   0  0  0  0  0  0  0  0  0  0  0  0
    2.3128  -12.7604    0.0000 C   0  0  0  0  0  0  0  0  0  0  0  0
    1.1638  -13.7246    0.0000 C   0  0  0  0  0  0  0  0  0  0  0  0
    0.0147  -14.6887    0.0000 N   0  0  0  0  0  0  0  0  0  0  0  0
  1  2  1  0
  2  3  1  0
  3  4  1  0
  4  5  1  0
  5  6  1  0
  6  7  1  0
  4  8  1  0
  8  9  1  0
  9 10  1  0
  4 11  1  0
 11 12  2  0
 12 13  1  0
 13 14  1  0
 14 15  1  0
 15 16  2  0
 16 17  1  0
 17 18  2  0
 18 19  1  0
 19 20  1  0
 20 21  1  0
 21 22  1  0
 22 23  2  0
 22 24  1  0
 24 25  1  0
 25 26  2  0
 26 27  1  0
 27 28  2  0
 28 29  1  0
 29 30  2  0
 30 31  1  0
 31 32  2  0
 32 33  1  0
 33 34  2  0
 34 35  1  0
 35 36  2  0
 19 37  2  0
 13 38  2  0
 38 39  1  0
 39 40  1  0
 40 41  3  0
 39 42  2  0
 42 43  1  0
 43 44  3  0
 42 11  1  0
 37 15  1  0
 36 22  1  0
 30 25  1  0
 36 31  1  0
M  END
>  <Candidate_ID>  (8) 
CAND_R2_008

>  <Candidate_Name>  (8) 
APN-DOPO-triethoxysilyl

>  <Parent_Seed_ID>  (8) 
TRAIN_019

>  <Parent_Name>  (8) 
APN-DOPO

>  <Transformation_Code>  (8) 
triethoxysilyl

>  <Design_Family>  (8) 
P-N-Si

>  <Preparation_Type>  (8) 
Additive + Secondary Crosslinking

>  <Synthesis_Level>  (8) 
B

>  <Parent_Tanimoto_r3>  (8) 
0.6442307692307693

>  <Max_Train_Tanimoto_r3>  (8) 
0.6442307692307693

>  <Risk_Flags>  (8) 
large structural change from parent; candidate may be outside strict in-domain threshold

$$$$
CAND_R2_009 | APN-DOPO-disiloxane
     RDKit          2D

 42 46  0  0  0  0  0  0  0  0999 V2000
   -2.8800  -10.0722    0.0000 C   0  0  0  0  0  0  0  0  0  0  0  0
   -1.9158  -11.2213    0.0000 Si  0  0  0  0  0  4  0  0  0  0  0  0
   -0.9516  -12.3704    0.0000 C   0  0  0  0  0  0  0  0  0  0  0  0
   -3.0648  -12.1855    0.0000 C   0  0  0  0  0  0  0  0  0  0  0  0
   -0.7667  -10.2571    0.0000 O   0  0  0  0  0  0  0  0  0  0  0  0
    0.6428  -10.7701    0.0000 Si  0  0  0  0  0  4  0  0  0  0  0  0
    0.1298  -12.1797    0.0000 C   0  0  0  0  0  0  0  0  0  0  0  0
    1.1559   -9.3606    0.0000 C   0  0  0  0  0  0  0  0  0  0  0  0
    2.0524  -11.2832    0.0000 C   0  0  0  0  0  0  0  0  0  0  0  0
    3.2014  -10.3190    0.0000 C   0  0  0  0  0  0  0  0  0  0  0  0
    4.6110  -10.8320    0.0000 C   0  0  0  0  0  0  0  0  0  0  0  0
    5.7600   -9.8678    0.0000 O   0  0  0  0  0  0  0  0  0  0  0  0
    5.4996   -8.3906    0.0000 C   0  0  0  0  0  0  0  0  0  0  0  0
    6.6486   -7.4264    0.0000 C   0  0  0  0  0  0  0  0  0  0  0  0
    6.3882   -5.9492    0.0000 C   0  0  0  0  0  0  0  0  0  0  0  0
    4.9786   -5.4362    0.0000 C   0  0  0  0  0  0  0  0  0  0  0  0
    3.8296   -6.4004    0.0000 C   0  0  0  0  0  0  0  0  0  0  0  0
    2.4200   -5.8874    0.0000 N   0  0  0  0  0  0  0  0  0  0  0  0
    2.1595   -4.4101    0.0000 C   0  0  0  0  0  0  0  0  0  0  0  0
    0.7500   -3.8971    0.0000 P   0  0  0  0  0  0  0  0  0  0  0  0
    0.4895   -5.3743    0.0000 O   0  0  0  0  0  0  0  0  0  0  0  0
    1.5000   -2.5981    0.0000 O   0  0  0  0  0  0  0  0  0  0  0  0
    0.7500   -1.2990    0.0000 C   0  0  0  0  0  0  0  0  0  0  0  0
    1.5000    0.0000    0.0000 C   0  0  0  0  0  0  0  0  0  0  0  0
    0.7500    1.2990    0.0000 C   0  0  0  0  0  0  0  0  0  0  0  0
   -0.7500    1.2990    0.0000 C   0  0  0  0  0  0  0  0  0  0  0  0
   -1.5000    0.0000    0.0000 C   0  0  0  0  0  0  0  0  0  0  0  0
   -0.7500   -1.2990    0.0000 C   0  0  0  0  0  0  0  0  0  0  0  0
   -1.5000   -2.5981    0.0000 C   0  0  0  0  0  0  0  0  0  0  0  0
   -3.0000   -2.5981    0.0000 C   0  0  0  0  0  0  0  0  0  0  0  0
   -3.7500   -3.8971    0.0000 C   0  0  0  0  0  0  0  0  0  0  0  0
   -3.0000   -5.1962    0.0000 C   0  0  0  0  0  0  0  0  0  0  0  0
   -1.5000   -5.1962    0.0000 C   0  0  0  0  0  0  0  0  0  0  0  0
   -0.7500   -3.8971    0.0000 C   0  0  0  0  0  0  0  0  0  0  0  0
    4.0900   -7.8776    0.0000 C   0  0  0  0  0  0  0  0  0  0  0  0
    4.8714  -12.3092    0.0000 C   0  0  0  0  0  0  0  0  0  0  0  0
    3.7224  -13.2734    0.0000 C   0  0  0  0  0  0  0  0  0  0  0  0
    3.9828  -14.7506    0.0000 C   0  0  0  0  0  0  0  0  0  0  0  0
    4.2433  -16.2278    0.0000 N   0  0  0  0  0  0  0  0  0  0  0  0
    2.3128  -12.7604    0.0000 C   0  0  0  0  0  0  0  0  0  0  0  0
    1.1638  -13.7246    0.0000 C   0  0  0  0  0  0  0  0  0  0  0  0
    0.0147  -14.6887    0.0000 N   0  0  0  0  0  0  0  0  0  0  0  0
  1  2  1  0
  2  3  1  0
  2  4  1  0
  2  5  1  0
  5  6  1  0
  6  7  1  0
  6  8  1  0
  6  9  1  0
  9 10  2  0
 10 11  1  0
 11 12  1  0
 12 13  1  0
 13 14  2  0
 14 15  1  0
 15 16  2  0
 16 17  1  0
 17 18  1  0
 18 19  1  0
 19 20  1  0
 20 21  2  0
 20 22  1  0
 22 23  1  0
 23 24  2  0
 24 25  1  0
 25 26  2  0
 26 27  1  0
 27 28  2  0
 28 29  1  0
 29 30  2  0
 30 31  1  0
 31 32  2  0
 32 33  1  0
 33 34  2  0
 17 35  2  0
 11 36  2  0
 36 37  1  0
 37 38  1  0
 38 39  3  0
 37 40  2  0
 40 41  1  0
 41 42  3  0
 40  9  1  0
 35 13  1  0
 34 20  1  0
 28 23  1  0
 34 29  1  0
M  END
>  <Candidate_ID>  (9) 
CAND_R2_009

>  <Candidate_Name>  (9) 
APN-DOPO-disiloxane

>  <Parent_Seed_ID>  (9) 
TRAIN_019

>  <Parent_Name>  (9) 
APN-DOPO

>  <Transformation_Code>  (9) 
disiloxane

>  <Design_Family>  (9) 
P-N-Si

>  <Preparation_Type>  (9) 
Additive

>  <Synthesis_Level>  (9) 
B

>  <Parent_Tanimoto_r3>  (9) 
0.6504854368932039

>  <Max_Train_Tanimoto_r3>  (9) 
0.6504854368932039

>  <Risk_Flags>  (9) 
candidate may be outside strict in-domain threshold

$$$$
CAND_R2_010 | APN-DOPO-glycidyloxy
     RDKit          2D

 39 44  0  0  0  0  0  0  0  0999 V2000
   -0.7667  -10.2571    0.0000 N   0  0  0  0  0  0  0  0  0  0  0  0
    0.6428  -10.7701    0.0000 C   0  0  0  0  0  0  0  0  0  0  0  0
    2.0524  -11.2832    0.0000 C   0  0  0  0  0  0  0  0  0  0  0  0
    3.2014  -10.3190    0.0000 C   0  0  0  0  0  0  0  0  0  0  0  0
    4.6110  -10.8320    0.0000 C   0  0  0  0  0  0  0  0  0  0  0  0
    5.7600   -9.8678    0.0000 O   0  0  0  0  0  0  0  0  0  0  0  0
    5.4996   -8.3906    0.0000 C   0  0  0  0  0  0  0  0  0  0  0  0
    6.6486   -7.4264    0.0000 C   0  0  0  0  0  0  0  0  0  0  0  0
    6.3882   -5.9492    0.0000 C   0  0  0  0  0  0  0  0  0  0  0  0
    4.9786   -5.4362    0.0000 C   0  0  0  0  0  0  0  0  0  0  0  0
    3.8296   -6.4004    0.0000 C   0  0  0  0  0  0  0  0  0  0  0  0
    2.4200   -5.8874    0.0000 N   0  0  0  0  0  0  0  0  0  0  0  0
    2.1595   -4.4101    0.0000 C   0  0  0  0  0  0  0  0  0  0  0  0
    0.7500   -3.8971    0.0000 P   0  0  0  0  0  0  0  0  0  0  0  0
    0.4895   -5.3743    0.0000 O   0  0  0  0  0  0  0  0  0  0  0  0
    1.5000   -2.5981    0.0000 O   0  0  0  0  0  0  0  0  0  0  0  0
    0.7500   -1.2990    0.0000 C   0  0  0  0  0  0  0  0  0  0  0  0
    1.5000    0.0000    0.0000 C   0  0  0  0  0  0  0  0  0  0  0  0
    0.7500    1.2990    0.0000 C   0  0  0  0  0  0  0  0  0  0  0  0
   -0.7500    1.2990    0.0000 C   0  0  0  0  0  0  0  0  0  0  0  0
   -1.5000    0.0000    0.0000 C   0  0  0  0  0  0  0  0  0  0  0  0
   -0.7500   -1.2990    0.0000 C   0  0  0  0  0  0  0  0  0  0  0  0
   -1.5000   -2.5981    0.0000 C   0  0  0  0  0  0  0  0  0  0  0  0
   -3.0000   -2.5981    0.0000 C   0  0  0  0  0  0  0  0  0  0  0  0
   -3.7500   -3.8971    0.0000 C   0  0  0  0  0  0  0  0  0  0  0  0
   -3.0000   -5.1962    0.0000 C   0  0  0  0  0  0  0  0  0  0  0  0
   -1.5000   -5.1962    0.0000 C   0  0  0  0  0  0  0  0  0  0  0  0
   -0.7500   -3.8971    0.0000 C   0  0  0  0  0  0  0  0  0  0  0  0
    4.0900   -7.8776    0.0000 C   0  0  0  0  0  0  0  0  0  0  0  0
    4.8714  -12.3092    0.0000 C   0  0  0  0  0  0  0  0  0  0  0  0
    3.7224  -13.2734    0.0000 C   0  0  0  0  0  0  0  0  0  0  0  0
    3.9828  -14.7506    0.0000 O   0  0  0  0  0  0  0  0  0  0  0  0
    2.8338  -15.7148    0.0000 C   0  0  0  0  0  0  0  0  0  0  0  0
    3.0943  -17.1920    0.0000 C   0  0  0  0  0  0  0  0  0  0  0  0
    4.0584  -18.3411    0.0000 C   0  0  0  0  0  0  0  0  0  0  0  0
    2.5812  -18.6016    0.0000 O   0  0  0  0  0  0  0  0  0  0  0  0
    2.3128  -12.7604    0.0000 C   0  0  0  0  0  0  0  0  0  0  0  0
    1.1638  -13.7246    0.0000 C   0  0  0  0  0  0  0  0  0  0  0  0
    0.0147  -14.6887    0.0000 N   0  0  0  0  0  0  0  0  0  0  0  0
  1  2  3  0
  2  3  1  0
  3  4  2  0
  4  5  1  0
  5  6  1  0
  6  7  1  0
  7  8  2  0
  8  9  1  0
  9 10  2  0
 10 11  1  0
 11 12  1  0
 12 13  1  0
 13 14  1  0
 14 15  2  0
 14 16  1  0
 16 17  1  0
 17 18  2  0
 18 19  1  0
 19 20  2  0
 20 21  1  0
 21 22  2  0
 22 23  1  0
 23 24  2  0
 24 25  1  0
 25 26  2  0
 26 27  1  0
 27 28  2  0
 11 29  2  0
  5 30  2  0
 30 31  1  0
 31 32  1  0
 32 33  1  0
 33 34  1  0
 34 35  1  0
 35 36  1  0
 31 37  2  0
 37 38  1  0
 38 39  3  0
 37  3  1  0
 29  7  1  0
 36 34  1  0
 28 14  1  0
 22 17  1  0
 28 23  1  0
M  END
>  <Candidate_ID>  (10) 
CAND_R2_010

>  <Candidate_Name>  (10) 
APN-DOPO-glycidyloxy

>  <Parent_Seed_ID>  (10) 
TRAIN_019

>  <Parent_Name>  (10) 
APN-DOPO

>  <Transformation_Code>  (10) 
glycidyloxy

>  <Design_Family>  (10) 
P-N

>  <Preparation_Type>  (10) 
Co-curing

>  <Synthesis_Level>  (10) 
B

>  <Parent_Tanimoto_r3>  (10) 
0.6699029126213593

>  <Max_Train_Tanimoto_r3>  (10) 
0.6699029126213593

>  <Risk_Flags>  (10) 
candidate may be outside strict in-domain threshold

$$$$
CAND_R2_011 | APN-DOPO-diaminotriazine
     RDKit          2D

 42 47  0  0  0  0  0  0  0  0999 V2000
   -0.7667  -10.2571    0.0000 N   0  0  0  0  0  0  0  0  0  0  0  0
    0.6428  -10.7701    0.0000 C   0  0  0  0  0  0  0  0  0  0  0  0
    2.0524  -11.2832    0.0000 C   0  0  0  0  0  0  0  0  0  0  0  0
    3.2014  -10.3190    0.0000 C   0  0  0  0  0  0  0  0  0  0  0  0
    4.6110  -10.8320    0.0000 C   0  0  0  0  0  0  0  0  0  0  0  0
    5.7600   -9.8678    0.0000 O   0  0  0  0  0  0  0  0  0  0  0  0
    5.4996   -8.3906    0.0000 C   0  0  0  0  0  0  0  0  0  0  0  0
    6.6486   -7.4264    0.0000 C   0  0  0  0  0  0  0  0  0  0  0  0
    6.3882   -5.9492    0.0000 C   0  0  0  0  0  0  0  0  0  0  0  0
    4.9786   -5.4362    0.0000 C   0  0  0  0  0  0  0  0  0  0  0  0
    3.8296   -6.4004    0.0000 C   0  0  0  0  0  0  0  0  0  0  0  0
    2.4200   -5.8874    0.0000 N   0  0  0  0  0  0  0  0  0  0  0  0
    2.1595   -4.4101    0.0000 C   0  0  0  0  0  0  0  0  0  0  0  0
    0.7500   -3.8971    0.0000 P   0  0  0  0  0  0  0  0  0  0  0  0
    0.4895   -5.3743    0.0000 O   0  0  0  0  0  0  0  0  0  0  0  0
    1.5000   -2.5981    0.0000 O   0  0  0  0  0  0  0  0  0  0  0  0
    0.7500   -1.2990    0.0000 C   0  0  0  0  0  0  0  0  0  0  0  0
    1.5000    0.0000    0.0000 C   0  0  0  0  0  0  0  0  0  0  0  0
    0.7500    1.2990    0.0000 C   0  0  0  0  0  0  0  0  0  0  0  0
   -0.7500    1.2990    0.0000 C   0  0  0  0  0  0  0  0  0  0  0  0
   -1.5000    0.0000    0.0000 C   0  0  0  0  0  0  0  0  0  0  0  0
   -0.7500   -1.2990    0.0000 C   0  0  0  0  0  0  0  0  0  0  0  0
   -1.5000   -2.5981    0.0000 C   0  0  0  0  0  0  0  0  0  0  0  0
   -3.0000   -2.5981    0.0000 C   0  0  0  0  0  0  0  0  0  0  0  0
   -3.7500   -3.8971    0.0000 C   0  0  0  0  0  0  0  0  0  0  0  0
   -3.0000   -5.1962    0.0000 C   0  0  0  0  0  0  0  0  0  0  0  0
   -1.5000   -5.1962    0.0000 C   0  0  0  0  0  0  0  0  0  0  0  0
   -0.7500   -3.8971    0.0000 C   0  0  0  0  0  0  0  0  0  0  0  0
    4.0900   -7.8776    0.0000 C   0  0  0  0  0  0  0  0  0  0  0  0
    4.8714  -12.3092    0.0000 C   0  0  0  0  0  0  0  0  0  0  0  0
    3.7224  -13.2734    0.0000 C   0  0  0  0  0  0  0  0  0  0  0  0
    3.9828  -14.7506    0.0000 C   0  0  0  0  0  0  0  0  0  0  0  0
    2.8338  -15.7148    0.0000 N   0  0  0  0  0  0  0  0  0  0  0  0
    3.0943  -17.1920    0.0000 C   0  0  0  0  0  0  0  0  0  0  0  0
    1.9452  -18.1562    0.0000 N   0  0  0  0  0  0  0  0  0  0  0  0
    4.5038  -17.7050    0.0000 N   0  0  0  0  0  0  0  0  0  0  0  0
    5.6529  -16.7409    0.0000 C   0  0  0  0  0  0  0  0  0  0  0  0
    7.0624  -17.2539    0.0000 N   0  0  0  0  0  0  0  0  0  0  0  0
    5.3924  -15.2637    0.0000 N   0  0  0  0  0  0  0  0  0  0  0  0
    2.3128  -12.7604    0.0000 C   0  0  0  0  0  0  0  0  0  0  0  0
    1.1638  -13.7246    0.0000 C   0  0  0  0  0  0  0  0  0  0  0  0
    0.0147  -14.6887    0.0000 N   0  0  0  0  0  0  0  0  0  0  0  0
  1  2  3  0
  2  3  1  0
  3  4  2  0
  4  5  1  0
  5  6  1  0
  6  7  1  0
  7  8  2  0
  8  9  1  0
  9 10  2  0
 10 11  1  0
 11 12  1  0
 12 13  1  0
 13 14  1  0
 14 15  2  0
 14 16  1  0
 16 17  1  0
 17 18  2  0
 18 19  1  0
 19 20  2  0
 20 21  1  0
 21 22  2  0
 22 23  1  0
 23 24  2  0
 24 25  1  0
 25 26  2  0
 26 27  1  0
 27 28  2  0
 11 29  2  0
  5 30  2  0
 30 31  1  0
 31 32  1  0
 32 33  2  0
 33 34  1  0
 34 35  1  0
 34 36  2  0
 36 37  1  0
 37 38  1  0
 37 39  2  0
 31 40  2  0
 40 41  1  0
 41 42  3  0
 40  3  1  0
 29  7  1  0
 39 32  1  0
 28 14  1  0
 22 17  1  0
 28 23  1  0
M  END
>  <Candidate_ID>  (11) 
CAND_R2_011

>  <Candidate_Name>  (11) 
APN-DOPO-diaminotriazine

>  <Parent_Seed_ID>  (11) 
TRAIN_019

>  <Parent_Name>  (11) 
APN-DOPO

>  <Transformation_Code>  (11) 
diaminotriazine

>  <Design_Family>  (11) 
P-N

>  <Preparation_Type>  (11) 
Co-curing

>  <Synthesis_Level>  (11) 
B

>  <Parent_Tanimoto_r3>  (11) 
0.6476190476190476

>  <Max_Train_Tanimoto_r3>  (11) 
0.6476190476190476

>  <Risk_Flags>  (11) 
large structural change from parent; candidate may be outside strict in-domain threshold

$$$$
CAND_R2_012 | APN-DOPO-piperazine
     RDKit          2D

 40 45  0  0  0  0  0  0  0  0999 V2000
   -0.7667  -10.2571    0.0000 N   0  0  0  0  0  0  0  0  0  0  0  0
    0.6428  -10.7701    0.0000 C   0  0  0  0  0  0  0  0  0  0  0  0
    2.0524  -11.2832    0.0000 C   0  0  0  0  0  0  0  0  0  0  0  0
    3.2014  -10.3190    0.0000 C   0  0  0  0  0  0  0  0  0  0  0  0
    4.6110  -10.8320    0.0000 C   0  0  0  0  0  0  0  0  0  0  0  0
    5.7600   -9.8678    0.0000 O   0  0  0  0  0  0  0  0  0  0  0  0
    5.4996   -8.3906    0.0000 C   0  0  0  0  0  0  0  0  0  0  0  0
    6.6486   -7.4264    0.0000 C   0  0  0  0  0  0  0  0  0  0  0  0
    6.3882   -5.9492    0.0000 C   0  0  0  0  0  0  0  0  0  0  0  0
    4.9786   -5.4362    0.0000 C   0  0  0  0  0  0  0  0  0  0  0  0
    3.8296   -6.4004    0.0000 C   0  0  0  0  0  0  0  0  0  0  0  0
    2.4200   -5.8874    0.0000 N   0  0  0  0  0  0  0  0  0  0  0  0
    2.1595   -4.4101    0.0000 C   0  0  0  0  0  0  0  0  0  0  0  0
    0.7500   -3.8971    0.0000 P   0  0  0  0  0  0  0  0  0  0  0  0
    0.4895   -5.3743    0.0000 O   0  0  0  0  0  0  0  0  0  0  0  0
    1.5000   -2.5981    0.0000 O   0  0  0  0  0  0  0  0  0  0  0  0
    0.7500   -1.2990    0.0000 C   0  0  0  0  0  0  0  0  0  0  0  0
    1.5000    0.0000    0.0000 C   0  0  0  0  0  0  0  0  0  0  0  0
    0.7500    1.2990    0.0000 C   0  0  0  0  0  0  0  0  0  0  0  0
   -0.7500    1.2990    0.0000 C   0  0  0  0  0  0  0  0  0  0  0  0
   -1.5000    0.0000    0.0000 C   0  0  0  0  0  0  0  0  0  0  0  0
   -0.7500   -1.2990    0.0000 C   0  0  0  0  0  0  0  0  0  0  0  0
   -1.5000   -2.5981    0.0000 C   0  0  0  0  0  0  0  0  0  0  0  0
   -3.0000   -2.5981    0.0000 C   0  0  0  0  0  0  0  0  0  0  0  0
   -3.7500   -3.8971    0.0000 C   0  0  0  0  0  0  0  0  0  0  0  0
   -3.0000   -5.1962    0.0000 C   0  0  0  0  0  0  0  0  0  0  0  0
   -1.5000   -5.1962    0.0000 C   0  0  0  0  0  0  0  0  0  0  0  0
   -0.7500   -3.8971    0.0000 C   0  0  0  0  0  0  0  0  0  0  0  0
    4.0900   -7.8776    0.0000 C   0  0  0  0  0  0  0  0  0  0  0  0
    4.8714  -12.3092    0.0000 C   0  0  0  0  0  0  0  0  0  0  0  0
    3.7224  -13.2734    0.0000 C   0  0  0  0  0  0  0  0  0  0  0  0
    3.9828  -14.7506    0.0000 N   0  0  0  0  0  0  0  0  0  0  0  0
    2.8338  -15.7148    0.0000 C   0  0  0  0  0  0  0  0  0  0  0  0
    3.0943  -17.1920    0.0000 C   0  0  0  0  0  0  0  0  0  0  0  0
    4.5038  -17.7050    0.0000 N   0  0  0  0  0  0  0  0  0  0  0  0
    5.6529  -16.7409    0.0000 C   0  0  0  0  0  0  0  0  0  0  0  0
    5.3924  -15.2637    0.0000 C   0  0  0  0  0  0  0  0  0  0  0  0
    2.3128  -12.7604    0.0000 C   0  0  0  0  0  0  0  0  0  0  0  0
    1.1638  -13.7246    0.0000 C   0  0  0  0  0  0  0  0  0  0  0  0
    0.0147  -14.6887    0.0000 N   0  0  0  0  0  0  0  0  0  0  0  0
  1  2  3  0
  2  3  1  0
  3  4  2  0
  4  5  1  0
  5  6  1  0
  6  7  1  0
  7  8  2  0
  8  9  1  0
  9 10  2  0
 10 11  1  0
 11 12  1  0
 12 13  1  0
 13 14  1  0
 14 15  2  0
 14 16  1  0
 16 17  1  0
 17 18  2  0
 18 19  1  0
 19 20  2  0
 20 21  1  0
 21 22  2  0
 22 23  1  0
 23 24  2  0
 24 25  1  0
 25 26  2  0
 26 27  1  0
 27 28  2  0
 11 29  2  0
  5 30  2  0
 30 31  1  0
 31 32  1  0
 32 33  1  0
 33 34  1  0
 34 35  1  0
 35 36  1  0
 36 37  1  0
 31 38  2  0
 38 39  1  0
 39 40  3  0
 38  3  1  0
 29  7  1  0
 37 32  1  0
 28 14  1  0
 22 17  1  0
 28 23  1  0
M  END
>  <Candidate_ID>  (12) 
CAND_R2_012

>  <Candidate_Name>  (12) 
APN-DOPO-piperazine

>  <Parent_Seed_ID>  (12) 
TRAIN_019

>  <Parent_Name>  (12) 
APN-DOPO

>  <Transformation_Code>  (12) 
piperazine

>  <Design_Family>  (12) 
P-N

>  <Preparation_Type>  (12) 
Co-curing

>  <Synthesis_Level>  (12) 
B

>  <Parent_Tanimoto_r3>  (12) 
0.6261682242990654

>  <Max_Train_Tanimoto_r3>  (12) 
0.6261682242990654

>  <Risk_Flags>  (12) 
large structural change from parent; candidate may be outside strict in-domain threshold

$$$$
CAND_R2_013 | APN-DOPO-benzamide-linker
     RDKit          2D

 43 48  0  0  0  0  0  0  0  0999 V2000
   -0.7667  -10.2571    0.0000 N   0  0  0  0  0  0  0  0  0  0  0  0
    0.6428  -10.7701    0.0000 C   0  0  0  0  0  0  0  0  0  0  0  0
    2.0524  -11.2832    0.0000 C   0  0  0  0  0  0  0  0  0  0  0  0
    3.2014  -10.3190    0.0000 C   0  0  0  0  0  0  0  0  0  0  0  0
    4.6110  -10.8320    0.0000 C   0  0  0  0  0  0  0  0  0  0  0  0
    5.7600   -9.8678    0.0000 O   0  0  0  0  0  0  0  0  0  0  0  0
    5.4996   -8.3906    0.0000 C   0  0  0  0  0  0  0  0  0  0  0  0
    6.6486   -7.4264    0.0000 C   0  0  0  0  0  0  0  0  0  0  0  0
    6.3882   -5.9492    0.0000 C   0  0  0  0  0  0  0  0  0  0  0  0
    4.9786   -5.4362    0.0000 C   0  0  0  0  0  0  0  0  0  0  0  0
    3.8296   -6.4004    0.0000 C   0  0  0  0  0  0  0  0  0  0  0  0
    2.4200   -5.8874    0.0000 N   0  0  0  0  0  0  0  0  0  0  0  0
    2.1595   -4.4101    0.0000 C   0  0  0  0  0  0  0  0  0  0  0  0
    0.7500   -3.8971    0.0000 P   0  0  0  0  0  0  0  0  0  0  0  0
    0.4895   -5.3743    0.0000 O   0  0  0  0  0  0  0  0  0  0  0  0
    1.5000   -2.5981    0.0000 O   0  0  0  0  0  0  0  0  0  0  0  0
    0.7500   -1.2990    0.0000 C   0  0  0  0  0  0  0  0  0  0  0  0
    1.5000    0.0000    0.0000 C   0  0  0  0  0  0  0  0  0  0  0  0
    0.7500    1.2990    0.0000 C   0  0  0  0  0  0  0  0  0  0  0  0
   -0.7500    1.2990    0.0000 C   0  0  0  0  0  0  0  0  0  0  0  0
   -1.5000    0.0000    0.0000 C   0  0  0  0  0  0  0  0  0  0  0  0
   -0.7500   -1.2990    0.0000 C   0  0  0  0  0  0  0  0  0  0  0  0
   -1.5000   -2.5981    0.0000 C   0  0  0  0  0  0  0  0  0  0  0  0
   -3.0000   -2.5981    0.0000 C   0  0  0  0  0  0  0  0  0  0  0  0
   -3.7500   -3.8971    0.0000 C   0  0  0  0  0  0  0  0  0  0  0  0
   -3.0000   -5.1962    0.0000 C   0  0  0  0  0  0  0  0  0  0  0  0
   -1.5000   -5.1962    0.0000 C   0  0  0  0  0  0  0  0  0  0  0  0
   -0.7500   -3.8971    0.0000 C   0  0  0  0  0  0  0  0  0  0  0  0
    4.0900   -7.8776    0.0000 C   0  0  0  0  0  0  0  0  0  0  0  0
    4.8714  -12.3092    0.0000 C   0  0  0  0  0  0  0  0  0  0  0  0
    3.7224  -13.2734    0.0000 C   0  0  0  0  0  0  0  0  0  0  0  0
    3.9828  -14.7506    0.0000 N   0  0  0  0  0  0  0  0  0  0  0  0
    2.8338  -15.7148    0.0000 C   0  0  0  0  0  0  0  0  0  0  0  0
    1.4242  -15.2018    0.0000 O   0  0  0  0  0  0  0  0  0  0  0  0
    3.0943  -17.1920    0.0000 C   0  0  0  0  0  0  0  0  0  0  0  0
    1.9452  -18.1562    0.0000 C   0  0  0  0  0  0  0  0  0  0  0  0
    2.2057  -19.6334    0.0000 C   0  0  0  0  0  0  0  0  0  0  0  0
    3.6152  -20.1464    0.0000 C   0  0  0  0  0  0  0  0  0  0  0  0
    4.7643  -19.1823    0.0000 C   0  0  0  0  0  0  0  0  0  0  0  0
    4.5038  -17.7050    0.0000 C   0  0  0  0  0  0  0  0  0  0  0  0
    2.3128  -12.7604    0.0000 C   0  0  0  0  0  0  0  0  0  0  0  0
    1.1638  -13.7246    0.0000 C   0  0  0  0  0  0  0  0  0  0  0  0
    0.0147  -14.6887    0.0000 N   0  0  0  0  0  0  0  0  0  0  0  0
  1  2  3  0
  2  3  1  0
  3  4  2  0
  4  5  1  0
  5  6  1  0
  6  7  1  0
  7  8  2  0
  8  9  1  0
  9 10  2  0
 10 11  1  0
 11 12  1  0
 12 13  1  0
 13 14  1  0
 14 15  2  0
 14 16  1  0
 16 17  1  0
 17 18  2  0
 18 19  1  0
 19 20  2  0
 20 21  1  0
 21 22  2  0
 22 23  1  0
 23 24  2  0
 24 25  1  0
 25 26  2  0
 26 27  1  0
 27 28  2  0
 11 29  2  0
  5 30  2  0
 30 31  1  0
 31 32  1  0
 32 33  1  0
 33 34  2  0
 33 35  1  0
 35 36  2  0
 36 37  1  0
 37 38  2  0
 38 39  1  0
 39 40  2  0
 31 41  2  0
 41 42  1  0
 42 43  3  0
 41  3  1  0
 29  7  1  0
 40 35  1  0
 28 14  1  0
 22 17  1  0
 28 23  1  0
M  END
>  <Candidate_ID>  (13) 
CAND_R2_013

>  <Candidate_Name>  (13) 
APN-DOPO-benzamide-linker

>  <Parent_Seed_ID>  (13) 
TRAIN_019

>  <Parent_Name>  (13) 
APN-DOPO

>  <Transformation_Code>  (13) 
benzamide_linker

>  <Design_Family>  (13) 
P-N

>  <Preparation_Type>  (13) 
Additive

>  <Synthesis_Level>  (13) 
B

>  <Parent_Tanimoto_r3>  (13) 
0.6146788990825688

>  <Max_Train_Tanimoto_r3>  (13) 
0.6146788990825688

>  <Risk_Flags>  (13) 
large structural change from parent; candidate may be outside strict in-domain threshold

$$$$
CAND_R2_014 | APN-DOPO-phenyl
     RDKit          2D

 40 45  0  0  0  0  0  0  0  0999 V2000
   -0.7667  -10.2571    0.0000 N   0  0  0  0  0  0  0  0  0  0  0  0
    0.6428  -10.7701    0.0000 C   0  0  0  0  0  0  0  0  0  0  0  0
    2.0524  -11.2832    0.0000 C   0  0  0  0  0  0  0  0  0  0  0  0
    3.2014  -10.3190    0.0000 C   0  0  0  0  0  0  0  0  0  0  0  0
    4.6110  -10.8320    0.0000 C   0  0  0  0  0  0  0  0  0  0  0  0
    5.7600   -9.8678    0.0000 O   0  0  0  0  0  0  0  0  0  0  0  0
    5.4996   -8.3906    0.0000 C   0  0  0  0  0  0  0  0  0  0  0  0
    6.6486   -7.4264    0.0000 C   0  0  0  0  0  0  0  0  0  0  0  0
    6.3882   -5.9492    0.0000 C   0  0  0  0  0  0  0  0  0  0  0  0
    4.9786   -5.4362    0.0000 C   0  0  0  0  0  0  0  0  0  0  0  0
    3.8296   -6.4004    0.0000 C   0  0  0  0  0  0  0  0  0  0  0  0
    2.4200   -5.8874    0.0000 N   0  0  0  0  0  0  0  0  0  0  0  0
    2.1595   -4.4101    0.0000 C   0  0  0  0  0  0  0  0  0  0  0  0
    0.7500   -3.8971    0.0000 P   0  0  0  0  0  0  0  0  0  0  0  0
    0.4895   -5.3743    0.0000 O   0  0  0  0  0  0  0  0  0  0  0  0
    1.5000   -2.5981    0.0000 O   0  0  0  0  0  0  0  0  0  0  0  0
    0.7500   -1.2990    0.0000 C   0  0  0  0  0  0  0  0  0  0  0  0
    1.5000    0.0000    0.0000 C   0  0  0  0  0  0  0  0  0  0  0  0
    0.7500    1.2990    0.0000 C   0  0  0  0  0  0  0  0  0  0  0  0
   -0.7500    1.2990    0.0000 C   0  0  0  0  0  0  0  0  0  0  0  0
   -1.5000    0.0000    0.0000 C   0  0  0  0  0  0  0  0  0  0  0  0
   -0.7500   -1.2990    0.0000 C   0  0  0  0  0  0  0  0  0  0  0  0
   -1.5000   -2.5981    0.0000 C   0  0  0  0  0  0  0  0  0  0  0  0
   -3.0000   -2.5981    0.0000 C   0  0  0  0  0  0  0  0  0  0  0  0
   -3.7500   -3.8971    0.0000 C   0  0  0  0  0  0  0  0  0  0  0  0
   -3.0000   -5.1962    0.0000 C   0  0  0  0  0  0  0  0  0  0  0  0
   -1.5000   -5.1962    0.0000 C   0  0  0  0  0  0  0  0  0  0  0  0
   -0.7500   -3.8971    0.0000 C   0  0  0  0  0  0  0  0  0  0  0  0
    4.0900   -7.8776    0.0000 C   0  0  0  0  0  0  0  0  0  0  0  0
    4.8714  -12.3092    0.0000 C   0  0  0  0  0  0  0  0  0  0  0  0
    3.7224  -13.2734    0.0000 C   0  0  0  0  0  0  0  0  0  0  0  0
    3.9828  -14.7506    0.0000 C   0  0  0  0  0  0  0  0  0  0  0  0
    2.8338  -15.7148    0.0000 C   0  0  0  0  0  0  0  0  0  0  0  0
    3.0943  -17.1920    0.0000 C   0  0  0  0  0  0  0  0  0  0  0  0
    4.5038  -17.7050    0.0000 C   0  0  0  0  0  0  0  0  0  0  0  0
    5.6529  -16.7409    0.0000 C   0  0  0  0  0  0  0  0  0  0  0  0
    5.3924  -15.2637    0.0000 C   0  0  0  0  0  0  0  0  0  0  0  0
    2.3128  -12.7604    0.0000 C   0  0  0  0  0  0  0  0  0  0  0  0
    1.1638  -13.7246    0.0000 C   0  0  0  0  0  0  0  0  0  0  0  0
    0.0147  -14.6887    0.0000 N   0  0  0  0  0  0  0  0  0  0  0  0
  1  2  3  0
  2  3  1  0
  3  4  2  0
  4  5  1  0
  5  6  1  0
  6  7  1  0
  7  8  2  0
  8  9  1  0
  9 10  2  0
 10 11  1  0
 11 12  1  0
 12 13  1  0
 13 14  1  0
 14 15  2  0
 14 16  1  0
 16 17  1  0
 17 18  2  0
 18 19  1  0
 19 20  2  0
 20 21  1  0
 21 22  2  0
 22 23  1  0
 23 24  2  0
 24 25  1  0
 25 26  2  0
 26 27  1  0
 27 28  2  0
 11 29  2  0
  5 30  2  0
 30 31  1  0
 31 32  1  0
 32 33  2  0
 33 34  1  0
 34 35  2  0
 35 36  1  0
 36 37  2  0
 31 38  2  0
 38 39  1  0
 39 40  3  0
 38  3  1  0
 29  7  1  0
 37 32  1  0
 28 14  1  0
 22 17  1  0
 28 23  1  0
M  END
>  <Candidate_ID>  (14) 
CAND_R2_014

>  <Candidate_Name>  (14) 
APN-DOPO-phenyl

>  <Parent_Seed_ID>  (14) 
TRAIN_019

>  <Parent_Name>  (14) 
APN-DOPO

>  <Transformation_Code>  (14) 
phenyl

>  <Design_Family>  (14) 
P-N

>  <Preparation_Type>  (14) 
Additive

>  <Synthesis_Level>  (14) 
B

>  <Parent_Tanimoto_r3>  (14) 
0.67

>  <Max_Train_Tanimoto_r3>  (14) 
0.67

>  <Risk_Flags>  (14) 
candidate may be outside strict in-domain threshold

$$$$
CAND_R2_015 | APN-DOPO-biphenyl
     RDKit          2D

 46 52  0  0  0  0  0  0  0  0999 V2000
   -0.7667  -10.2571    0.0000 N   0  0  0  0  0  0  0  0  0  0  0  0
    0.6428  -10.7701    0.0000 C   0  0  0  0  0  0  0  0  0  0  0  0
    2.0524  -11.2832    0.0000 C   0  0  0  0  0  0  0  0  0  0  0  0
    3.2014  -10.3190    0.0000 C   0  0  0  0  0  0  0  0  0  0  0  0
    4.6110  -10.8320    0.0000 C   0  0  0  0  0  0  0  0  0  0  0  0
    5.7600   -9.8678    0.0000 O   0  0  0  0  0  0  0  0  0  0  0  0
    5.4996   -8.3906    0.0000 C   0  0  0  0  0  0  0  0  0  0  0  0
    6.6486   -7.4264    0.0000 C   0  0  0  0  0  0  0  0  0  0  0  0
    6.3882   -5.9492    0.0000 C   0  0  0  0  0  0  0  0  0  0  0  0
    4.9786   -5.4362    0.0000 C   0  0  0  0  0  0  0  0  0  0  0  0
    3.8296   -6.4004    0.0000 C   0  0  0  0  0  0  0  0  0  0  0  0
    2.4200   -5.8874    0.0000 N   0  0  0  0  0  0  0  0  0  0  0  0
    2.1595   -4.4101    0.0000 C   0  0  0  0  0  0  0  0  0  0  0  0
    0.7500   -3.8971    0.0000 P   0  0  0  0  0  0  0  0  0  0  0  0
    0.4895   -5.3743    0.0000 O   0  0  0  0  0  0  0  0  0  0  0  0
    1.5000   -2.5981    0.0000 O   0  0  0  0  0  0  0  0  0  0  0  0
    0.7500   -1.2990    0.0000 C   0  0  0  0  0  0  0  0  0  0  0  0
    1.5000    0.0000    0.0000 C   0  0  0  0  0  0  0  0  0  0  0  0
    0.7500    1.2990    0.0000 C   0  0  0  0  0  0  0  0  0  0  0  0
   -0.7500    1.2990    0.0000 C   0  0  0  0  0  0  0  0  0  0  0  0
   -1.5000    0.0000    0.0000 C   0  0  0  0  0  0  0  0  0  0  0  0
   -0.7500   -1.2990    0.0000 C   0  0  0  0  0  0  0  0  0  0  0  0
   -1.5000   -2.5981    0.0000 C   0  0  0  0  0  0  0  0  0  0  0  0
   -3.0000   -2.5981    0.0000 C   0  0  0  0  0  0  0  0  0  0  0  0
   -3.7500   -3.8971    0.0000 C   0  0  0  0  0  0  0  0  0  0  0  0
   -3.0000   -5.1962    0.0000 C   0  0  0  0  0  0  0  0  0  0  0  0
   -1.5000   -5.1962    0.0000 C   0  0  0  0  0  0  0  0  0  0  0  0
   -0.7500   -3.8971    0.0000 C   0  0  0  0  0  0  0  0  0  0  0  0
    4.0900   -7.8776    0.0000 C   0  0  0  0  0  0  0  0  0  0  0  0
    4.8714  -12.3092    0.0000 C   0  0  0  0  0  0  0  0  0  0  0  0
    3.7224  -13.2734    0.0000 C   0  0  0  0  0  0  0  0  0  0  0  0
    3.9828  -14.7506    0.0000 C   0  0  0  0  0  0  0  0  0  0  0  0
    2.8338  -15.7148    0.0000 C   0  0  0  0  0  0  0  0  0  0  0  0
    3.0943  -17.1920    0.0000 C   0  0  0  0  0  0  0  0  0  0  0  0
    4.5038  -17.7050    0.0000 C   0  0  0  0  0  0  0  0  0  0  0  0
    4.7643  -19.1823    0.0000 C   0  0  0  0  0  0  0  0  0  0  0  0
    3.6152  -20.1464    0.0000 C   0  0  0  0  0  0  0  0  0  0  0  0
    3.8757  -21.6237    0.0000 C   0  0  0  0  0  0  0  0  0  0  0  0
    5.2852  -22.1367    0.0000 C   0  0  0  0  0  0  0  0  0  0  0  0
    6.4343  -21.1725    0.0000 C   0  0  0  0  0  0  0  0  0  0  0  0
    6.1738  -19.6953    0.0000 C   0  0  0  0  0  0  0  0  0  0  0  0
    5.6529  -16.7409    0.0000 C   0  0  0  0  0  0  0  0  0  0  0  0
    5.3924  -15.2637    0.0000 C   0  0  0  0  0  0  0  0  0  0  0  0
    2.3128  -12.7604    0.0000 C   0  0  0  0  0  0  0  0  0  0  0  0
    1.1638  -13.7246    0.0000 C   0  0  0  0  0  0  0  0  0  0  0  0
    0.0147  -14.6887    0.0000 N   0  0  0  0  0  0  0  0  0  0  0  0
  1  2  3  0
  2  3  1  0
  3  4  2  0
  4  5  1  0
  5  6  1  0
  6  7  1  0
  7  8  2  0
  8  9  1  0
  9 10  2  0
 10 11  1  0
 11 12  1  0
 12 13  1  0
 13 14  1  0
 14 15  2  0
 14 16  1  0
 16 17  1  0
 17 18  2  0
 18 19  1  0
 19 20  2  0
 20 21  1  0
 21 22  2  0
 22 23  1  0
 23 24  2  0
 24 25  1  0
 25 26  2  0
 26 27  1  0
 27 28  2  0
 11 29  2  0
  5 30  2  0
 30 31  1  0
 31 32  1  0
 32 33  2  0
 33 34  1  0
 34 35  2  0
 35 36  1  0
 36 37  2  0
 37 38  1  0
 38 39  2  0
 39 40  1  0
 40 41  2  0
 35 42  1  0
 42 43  2  0
 31 44  2  0
 44 45  1  0
 45 46  3  0
 44  3  1  0
 29  7  1  0
 43 32  1  0
 28 14  1  0
 41 36  1  0
 22 17  1  0
 28 23  1  0
M  END
>  <Candidate_ID>  (15) 
CAND_R2_015

>  <Candidate_Name>  (15) 
APN-DOPO-biphenyl

>  <Parent_Seed_ID>  (15) 
TRAIN_019

>  <Parent_Name>  (15) 
APN-DOPO

>  <Transformation_Code>  (15) 
biphenyl

>  <Design_Family>  (15) 
P-N

>  <Preparation_Type>  (15) 
Additive

>  <Synthesis_Level>  (15) 
B

>  <Parent_Tanimoto_r3>  (15) 
0.638095238095238

>  <Max_Train_Tanimoto_r3>  (15) 
0.638095238095238

>  <Risk_Flags>  (15) 
large structural change from parent; candidate may be outside strict in-domain threshold

$$$$
CAND_R2_016 | APN-DOPO-nitrile-to-amide
     RDKit          2D

 35 39  0  0  0  0  0  0  0  0999 V2000
    0.0147  -14.6887    0.0000 N   0  0  0  0  0  0  0  0  0  0  0  0
    1.1638  -13.7246    0.0000 C   0  0  0  0  0  0  0  0  0  0  0  0
    2.3128  -12.7604    0.0000 C   0  0  0  0  0  0  0  0  0  0  0  0
    2.0524  -11.2832    0.0000 C   0  0  0  0  0  0  0  0  0  0  0  0
    3.2014  -10.3190    0.0000 C   0  0  0  0  0  0  0  0  0  0  0  0
    4.6110  -10.8320    0.0000 C   0  0  0  0  0  0  0  0  0  0  0  0
    5.7600   -9.8678    0.0000 O   0  0  0  0  0  0  0  0  0  0  0  0
    5.4996   -8.3906    0.0000 C   0  0  0  0  0  0  0  0  0  0  0  0
    6.6486   -7.4264    0.0000 C   0  0  0  0  0  0  0  0  0  0  0  0
    6.3882   -5.9492    0.0000 C   0  0  0  0  0  0  0  0  0  0  0  0
    4.9786   -5.4362    0.0000 C   0  0  0  0  0  0  0  0  0  0  0  0
    3.8296   -6.4004    0.0000 C   0  0  0  0  0  0  0  0  0  0  0  0
    2.4200   -5.8874    0.0000 N   0  0  0  0  0  0  0  0  0  0  0  0
    2.1595   -4.4101    0.0000 C   0  0  0  0  0  0  0  0  0  0  0  0
    0.7500   -3.8971    0.0000 P   0  0  0  0  0  0  0  0  0  0  0  0
    0.4895   -5.3743    0.0000 O   0  0  0  0  0  0  0  0  0  0  0  0
    1.5000   -2.5981    0.0000 O   0  0  0  0  0  0  0  0  0  0  0  0
    0.7500   -1.2990    0.0000 C   0  0  0  0  0  0  0  0  0  0  0  0
    1.5000    0.0000    0.0000 C   0  0  0  0  0  0  0  0  0  0  0  0
    0.7500    1.2990    0.0000 C   0  0  0  0  0  0  0  0  0  0  0  0
   -0.7500    1.2990    0.0000 C   0  0  0  0  0  0  0  0  0  0  0  0
   -1.5000    0.0000    0.0000 C   0  0  0  0  0  0  0  0  0  0  0  0
   -0.7500   -1.2990    0.0000 C   0  0  0  0  0  0  0  0  0  0  0  0
   -1.5000   -2.5981    0.0000 C   0  0  0  0  0  0  0  0  0  0  0  0
   -3.0000   -2.5981    0.0000 C   0  0  0  0  0  0  0  0  0  0  0  0
   -3.7500   -3.8971    0.0000 C   0  0  0  0  0  0  0  0  0  0  0  0
   -3.0000   -5.1962    0.0000 C   0  0  0  0  0  0  0  0  0  0  0  0
   -1.5000   -5.1962    0.0000 C   0  0  0  0  0  0  0  0  0  0  0  0
   -0.7500   -3.8971    0.0000 C   0  0  0  0  0  0  0  0  0  0  0  0
    4.0900   -7.8776    0.0000 C   0  0  0  0  0  0  0  0  0  0  0  0
    4.8714  -12.3092    0.0000 C   0  0  0  0  0  0  0  0  0  0  0  0
    3.7224  -13.2734    0.0000 C   0  0  0  0  0  0  0  0  0  0  0  0
    3.9828  -14.7506    0.0000 C   0  0  0  0  0  0  0  0  0  0  0  0
    5.3924  -15.2637    0.0000 N   0  0  0  0  0  0  0  0  0  0  0  0
    2.8338  -15.7148    0.0000 O   0  0  0  0  0  0  0  0  0  0  0  0
  1  2  3  0
  2  3  1  0
  3  4  2  0
  4  5  1  0
  5  6  2  0
  6  7  1  0
  7  8  1  0
  8  9  2  0
  9 10  1  0
 10 11  2  0
 11 12  1  0
 12 13  1  0
 13 14  1  0
 14 15  1  0
 15 16  2  0
 15 17  1  0
 17 18  1  0
 18 19  2  0
 19 20  1  0
 20 21  2  0
 21 22  1  0
 22 23  2  0
 23 24  1  0
 24 25  2  0
 25 26  1  0
 26 27  2  0
 27 28  1  0
 28 29  2  0
 12 30  2  0
  6 31  1  0
 31 32  2  0
 32 33  1  0
 33 34  1  0
 33 35  2  0
 32  3  1  0
 30  8  1  0
 29 15  1  0
 23 18  1  0
 29 24  1  0
M  END
>  <Candidate_ID>  (16) 
CAND_R2_016

>  <Candidate_Name>  (16) 
APN-DOPO-nitrile-to-amide

>  <Parent_Seed_ID>  (16) 
TRAIN_019

>  <Parent_Name>  (16) 
APN-DOPO

>  <Transformation_Code>  (16) 
nitrile_to_amide

>  <Design_Family>  (16) 
P-N

>  <Preparation_Type>  (16) 
Additive

>  <Synthesis_Level>  (16) 
B

>  <Parent_Tanimoto_r3>  (16) 
0.7608695652173914

>  <Max_Train_Tanimoto_r3>  (16) 
0.7608695652173914

>  <Risk_Flags>  (16) 
none

$$$$
CAND_R2_017 | APN-DOPO-nitrile-to-amide-all
     RDKit          2D

 36 40  0  0  0  0  0  0  0  0999 V2000
   -0.2458  -13.2115    0.0000 N   0  0  0  0  0  0  0  0  0  0  0  0
    1.1638  -13.7246    0.0000 C   0  0  0  0  0  0  0  0  0  0  0  0
    1.4242  -15.2018    0.0000 O   0  0  0  0  0  0  0  0  0  0  0  0
    2.3128  -12.7604    0.0000 C   0  0  0  0  0  0  0  0  0  0  0  0
    2.0524  -11.2832    0.0000 C   0  0  0  0  0  0  0  0  0  0  0  0
    3.2014  -10.3190    0.0000 C   0  0  0  0  0  0  0  0  0  0  0  0
    4.6110  -10.8320    0.0000 C   0  0  0  0  0  0  0  0  0  0  0  0
    5.7600   -9.8678    0.0000 O   0  0  0  0  0  0  0  0  0  0  0  0
    5.4996   -8.3906    0.0000 C   0  0  0  0  0  0  0  0  0  0  0  0
    6.6486   -7.4264    0.0000 C   0  0  0  0  0  0  0  0  0  0  0  0
    6.3882   -5.9492    0.0000 C   0  0  0  0  0  0  0  0  0  0  0  0
    4.9786   -5.4362    0.0000 C   0  0  0  0  0  0  0  0  0  0  0  0
    3.8296   -6.4004    0.0000 C   0  0  0  0  0  0  0  0  0  0  0  0
    2.4200   -5.8874    0.0000 N   0  0  0  0  0  0  0  0  0  0  0  0
    2.1595   -4.4101    0.0000 C   0  0  0  0  0  0  0  0  0  0  0  0
    0.7500   -3.8971    0.0000 P   0  0  0  0  0  0  0  0  0  0  0  0
    0.4895   -5.3743    0.0000 O   0  0  0  0  0  0  0  0  0  0  0  0
    1.5000   -2.5981    0.0000 O   0  0  0  0  0  0  0  0  0  0  0  0
    0.7500   -1.2990    0.0000 C   0  0  0  0  0  0  0  0  0  0  0  0
    1.5000    0.0000    0.0000 C   0  0  0  0  0  0  0  0  0  0  0  0
    0.7500    1.2990    0.0000 C   0  0  0  0  0  0  0  0  0  0  0  0
   -0.7500    1.2990    0.0000 C   0  0  0  0  0  0  0  0  0  0  0  0
   -1.5000    0.0000    0.0000 C   0  0  0  0  0  0  0  0  0  0  0  0
   -0.7500   -1.2990    0.0000 C   0  0  0  0  0  0  0  0  0  0  0  0
   -1.5000   -2.5981    0.0000 C   0  0  0  0  0  0  0  0  0  0  0  0
   -3.0000   -2.5981    0.0000 C   0  0  0  0  0  0  0  0  0  0  0  0
   -3.7500   -3.8971    0.0000 C   0  0  0  0  0  0  0  0  0  0  0  0
   -3.0000   -5.1962    0.0000 C   0  0  0  0  0  0  0  0  0  0  0  0
   -1.5000   -5.1962    0.0000 C   0  0  0  0  0  0  0  0  0  0  0  0
   -0.7500   -3.8971    0.0000 C   0  0  0  0  0  0  0  0  0  0  0  0
    4.0900   -7.8776    0.0000 C   0  0  0  0  0  0  0  0  0  0  0  0
    4.8714  -12.3092    0.0000 C   0  0  0  0  0  0  0  0  0  0  0  0
    3.7224  -13.2734    0.0000 C   0  0  0  0  0  0  0  0  0  0  0  0
    3.9828  -14.7506    0.0000 C   0  0  0  0  0  0  0  0  0  0  0  0
    5.3924  -15.2637    0.0000 N   0  0  0  0  0  0  0  0  0  0  0  0
    2.8338  -15.7148    0.0000 O   0  0  0  0  0  0  0  0  0  0  0  0
  1  2  1  0
  2  3  2  0
  2  4  1  0
  4  5  2  0
  5  6  1  0
  6  7  2  0
  7  8  1  0
  8  9  1  0
  9 10  2  0
 10 11  1  0
 11 12  2  0
 12 13  1  0
 13 14  1  0
 14 15  1  0
 15 16  1  0
 16 17  2  0
 16 18  1  0
 18 19  1  0
 19 20  2  0
 20 21  1  0
 21 22  2  0
 22 23  1  0
 23 24  2  0
 24 25  1  0
 25 26  2  0
 26 27  1  0
 27 28  2  0
 28 29  1  0
 29 30  2  0
 13 31  2  0
  7 32  1  0
 32 33  2  0
 33 34  1  0
 34 35  1  0
 34 36  2  0
 33  4  1  0
 31  9  1  0
 30 16  1  0
 24 19  1  0
 30 25  1  0
M  END
>  <Candidate_ID>  (17) 
CAND_R2_017

>  <Candidate_Name>  (17) 
APN-DOPO-nitrile-to-amide-all

>  <Parent_Seed_ID>  (17) 
TRAIN_019

>  <Parent_Name>  (17) 
APN-DOPO

>  <Transformation_Code>  (17) 
nitrile_to_amide_all

>  <Design_Family>  (17) 
P-N

>  <Preparation_Type>  (17) 
Additive

>  <Synthesis_Level>  (17) 
B

>  <Parent_Tanimoto_r3>  (17) 
0.6631578947368421

>  <Max_Train_Tanimoto_r3>  (17) 
0.6631578947368421

>  <Risk_Flags>  (17) 
candidate may be outside strict in-domain threshold

$$$$
CAND_R2_018 | APN-DOPO-nitrile-to-acid
     RDKit          2D

 35 39  0  0  0  0  0  0  0  0999 V2000
   -0.7667  -10.2571    0.0000 N   0  0  0  0  0  0  0  0  0  0  0  0
    0.6428  -10.7701    0.0000 C   0  0  0  0  0  0  0  0  0  0  0  0
    2.0524  -11.2832    0.0000 C   0  0  0  0  0  0  0  0  0  0  0  0
    3.2014  -10.3190    0.0000 C   0  0  0  0  0  0  0  0  0  0  0  0
    4.6110  -10.8320    0.0000 C   0  0  0  0  0  0  0  0  0  0  0  0
    5.7600   -9.8678    0.0000 O   0  0  0  0  0  0  0  0  0  0  0  0
    5.4996   -8.3906    0.0000 C   0  0  0  0  0  0  0  0  0  0  0  0
    6.6486   -7.4264    0.0000 C   0  0  0  0  0  0  0  0  0  0  0  0
    6.3882   -5.9492    0.0000 C   0  0  0  0  0  0  0  0  0  0  0  0
    4.9786   -5.4362    0.0000 C   0  0  0  0  0  0  0  0  0  0  0  0
    3.8296   -6.4004    0.0000 C   0  0  0  0  0  0  0  0  0  0  0  0
    2.4200   -5.8874    0.0000 N   0  0  0  0  0  0  0  0  0  0  0  0
    2.1595   -4.4101    0.0000 C   0  0  0  0  0  0  0  0  0  0  0  0
    0.7500   -3.8971    0.0000 P   0  0  0  0  0  0  0  0  0  0  0  0
    0.4895   -5.3743    0.0000 O   0  0  0  0  0  0  0  0  0  0  0  0
    1.5000   -2.5981    0.0000 O   0  0  0  0  0  0  0  0  0  0  0  0
    0.7500   -1.2990    0.0000 C   0  0  0  0  0  0  0  0  0  0  0  0
    1.5000    0.0000    0.0000 C   0  0  0  0  0  0  0  0  0  0  0  0
    0.7500    1.2990    0.0000 C   0  0  0  0  0  0  0  0  0  0  0  0
   -0.7500    1.2990    0.0000 C   0  0  0  0  0  0  0  0  0  0  0  0
   -1.5000    0.0000    0.0000 C   0  0  0  0  0  0  0  0  0  0  0  0
   -0.7500   -1.2990    0.0000 C   0  0  0  0  0  0  0  0  0  0  0  0
   -1.5000   -2.5981    0.0000 C   0  0  0  0  0  0  0  0  0  0  0  0
   -3.0000   -2.5981    0.0000 C   0  0  0  0  0  0  0  0  0  0  0  0
   -3.7500   -3.8971    0.0000 C   0  0  0  0  0  0  0  0  0  0  0  0
   -3.0000   -5.1962    0.0000 C   0  0  0  0  0  0  0  0  0  0  0  0
   -1.5000   -5.1962    0.0000 C   0  0  0  0  0  0  0  0  0  0  0  0
   -0.7500   -3.8971    0.0000 C   0  0  0  0  0  0  0  0  0  0  0  0
    4.0900   -7.8776    0.0000 C   0  0  0  0  0  0  0  0  0  0  0  0
    4.8714  -12.3092    0.0000 C   0  0  0  0  0  0  0  0  0  0  0  0
    3.7224  -13.2734    0.0000 C   0  0  0  0  0  0  0  0  0  0  0  0
    2.3128  -12.7604    0.0000 C   0  0  0  0  0  0  0  0  0  0  0  0
    1.1638  -13.7246    0.0000 C   0  0  0  0  0  0  0  0  0  0  0  0
   -0.2458  -13.2115    0.0000 O   0  0  0  0  0  0  0  0  0  0  0  0
    1.4242  -15.2018    0.0000 O   0  0  0  0  0  0  0  0  0  0  0  0
  1  2  3  0
  2  3  1  0
  3  4  2  0
  4  5  1  0
  5  6  1  0
  6  7  1  0
  7  8  2  0
  8  9  1  0
  9 10  2  0
 10 11  1  0
 11 12  1  0
 12 13  1  0
 13 14  1  0
 14 15  2  0
 14 16  1  0
 16 17  1  0
 17 18  2  0
 18 19  1  0
 19 20  2  0
 20 21  1  0
 21 22  2  0
 22 23  1  0
 23 24  2  0
 24 25  1  0
 25 26  2  0
 26 27  1  0
 27 28  2  0
 11 29  2  0
  5 30  2  0
 30 31  1  0
 31 32  2  0
 32 33  1  0
 33 34  2  0
 33 35  1  0
 32  3  1  0
 29  7  1  0
 28 14  1  0
 22 17  1  0
 28 23  1  0
M  END
>  <Candidate_ID>  (18) 
CAND_R2_018

>  <Candidate_Name>  (18) 
APN-DOPO-nitrile-to-acid

>  <Parent_Seed_ID>  (18) 
TRAIN_019

>  <Parent_Name>  (18) 
APN-DOPO

>  <Transformation_Code>  (18) 
nitrile_to_acid

>  <Design_Family>  (18) 
P-N

>  <Preparation_Type>  (18) 
Additive

>  <Synthesis_Level>  (18) 
B

>  <Parent_Tanimoto_r3>  (18) 
0.7692307692307693

>  <Max_Train_Tanimoto_r3>  (18) 
0.7692307692307693

>  <Risk_Flags>  (18) 
none

$$$$
CAND_R2_019 | APN-DOPO-nitrile-to-acid-2
     RDKit          2D

 35 39  0  0  0  0  0  0  0  0999 V2000
    0.0147  -14.6887    0.0000 N   0  0  0  0  0  0  0  0  0  0  0  0
    1.1638  -13.7246    0.0000 C   0  0  0  0  0  0  0  0  0  0  0  0
    2.3128  -12.7604    0.0000 C   0  0  0  0  0  0  0  0  0  0  0  0
    2.0524  -11.2832    0.0000 C   0  0  0  0  0  0  0  0  0  0  0  0
    3.2014  -10.3190    0.0000 C   0  0  0  0  0  0  0  0  0  0  0  0
    4.6110  -10.8320    0.0000 C   0  0  0  0  0  0  0  0  0  0  0  0
    5.7600   -9.8678    0.0000 O   0  0  0  0  0  0  0  0  0  0  0  0
    5.4996   -8.3906    0.0000 C   0  0  0  0  0  0  0  0  0  0  0  0
    6.6486   -7.4264    0.0000 C   0  0  0  0  0  0  0  0  0  0  0  0
    6.3882   -5.9492    0.0000 C   0  0  0  0  0  0  0  0  0  0  0  0
    4.9786   -5.4362    0.0000 C   0  0  0  0  0  0  0  0  0  0  0  0
    3.8296   -6.4004    0.0000 C   0  0  0  0  0  0  0  0  0  0  0  0
    2.4200   -5.8874    0.0000 N   0  0  0  0  0  0  0  0  0  0  0  0
    2.1595   -4.4101    0.0000 C   0  0  0  0  0  0  0  0  0  0  0  0
    0.7500   -3.8971    0.0000 P   0  0  0  0  0  0  0  0  0  0  0  0
    0.4895   -5.3743    0.0000 O   0  0  0  0  0  0  0  0  0  0  0  0
    1.5000   -2.5981    0.0000 O   0  0  0  0  0  0  0  0  0  0  0  0
    0.7500   -1.2990    0.0000 C   0  0  0  0  0  0  0  0  0  0  0  0
    1.5000    0.0000    0.0000 C   0  0  0  0  0  0  0  0  0  0  0  0
    0.7500    1.2990    0.0000 C   0  0  0  0  0  0  0  0  0  0  0  0
   -0.7500    1.2990    0.0000 C   0  0  0  0  0  0  0  0  0  0  0  0
   -1.5000    0.0000    0.0000 C   0  0  0  0  0  0  0  0  0  0  0  0
   -0.7500   -1.2990    0.0000 C   0  0  0  0  0  0  0  0  0  0  0  0
   -1.5000   -2.5981    0.0000 C   0  0  0  0  0  0  0  0  0  0  0  0
   -3.0000   -2.5981    0.0000 C   0  0  0  0  0  0  0  0  0  0  0  0
   -3.7500   -3.8971    0.0000 C   0  0  0  0  0  0  0  0  0  0  0  0
   -3.0000   -5.1962    0.0000 C   0  0  0  0  0  0  0  0  0  0  0  0
   -1.5000   -5.1962    0.0000 C   0  0  0  0  0  0  0  0  0  0  0  0
   -0.7500   -3.8971    0.0000 C   0  0  0  0  0  0  0  0  0  0  0  0
    4.0900   -7.8776    0.0000 C   0  0  0  0  0  0  0  0  0  0  0  0
    4.8714  -12.3092    0.0000 C   0  0  0  0  0  0  0  0  0  0  0  0
    3.7224  -13.2734    0.0000 C   0  0  0  0  0  0  0  0  0  0  0  0
    3.9828  -14.7506    0.0000 C   0  0  0  0  0  0  0  0  0  0  0  0
    2.8338  -15.7148    0.0000 O   0  0  0  0  0  0  0  0  0  0  0  0
    5.3924  -15.2637    0.0000 O   0  0  0  0  0  0  0  0  0  0  0  0
  1  2  3  0
  2  3  1  0
  3  4  2  0
  4  5  1  0
  5  6  2  0
  6  7  1  0
  7  8  1  0
  8  9  2  0
  9 10  1  0
 10 11  2  0
 11 12  1  0
 12 13  1  0
 13 14  1  0
 14 15  1  0
 15 16  2  0
 15 17  1  0
 17 18  1  0
 18 19  2  0
 19 20  1  0
 20 21  2  0
 21 22  1  0
 22 23  2  0
 23 24  1  0
 24 25  2  0
 25 26  1  0
 26 27  2  0
 27 28  1  0
 28 29  2  0
 12 30  2  0
  6 31  1  0
 31 32  2  0
 32 33  1  0
 33 34  2  0
 33 35  1  0
 32  3  1  0
 30  8  1  0
 29 15  1  0
 23 18  1  0
 29 24  1  0
M  END
>  <Candidate_ID>  (19) 
CAND_R2_019

>  <Candidate_Name>  (19) 
APN-DOPO-nitrile-to-acid-2

>  <Parent_Seed_ID>  (19) 
TRAIN_019

>  <Parent_Name>  (19) 
APN-DOPO

>  <Transformation_Code>  (19) 
nitrile_to_acid

>  <Design_Family>  (19) 
P-N

>  <Preparation_Type>  (19) 
Additive

>  <Synthesis_Level>  (19) 
B

>  <Parent_Tanimoto_r3>  (19) 
0.7608695652173914

>  <Max_Train_Tanimoto_r3>  (19) 
0.7608695652173914

>  <Risk_Flags>  (19) 
none

$$$$
CAND_R2_020 | APN-DOPO-nitrile-to-acid-all
     RDKit          2D

 36 40  0  0  0  0  0  0  0  0999 V2000
    1.4242  -15.2018    0.0000 O   0  0  0  0  0  0  0  0  0  0  0  0
    1.1638  -13.7246    0.0000 C   0  0  0  0  0  0  0  0  0  0  0  0
   -0.2458  -13.2115    0.0000 O   0  0  0  0  0  0  0  0  0  0  0  0
    2.3128  -12.7604    0.0000 C   0  0  0  0  0  0  0  0  0  0  0  0
    2.0524  -11.2832    0.0000 C   0  0  0  0  0  0  0  0  0  0  0  0
    3.2014  -10.3190    0.0000 C   0  0  0  0  0  0  0  0  0  0  0  0
    4.6110  -10.8320    0.0000 C   0  0  0  0  0  0  0  0  0  0  0  0
    5.7600   -9.8678    0.0000 O   0  0  0  0  0  0  0  0  0  0  0  0
    5.4996   -8.3906    0.0000 C   0  0  0  0  0  0  0  0  0  0  0  0
    6.6486   -7.4264    0.0000 C   0  0  0  0  0  0  0  0  0  0  0  0
    6.3882   -5.9492    0.0000 C   0  0  0  0  0  0  0  0  0  0  0  0
    4.9786   -5.4362    0.0000 C   0  0  0  0  0  0  0  0  0  0  0  0
    3.8296   -6.4004    0.0000 C   0  0  0  0  0  0  0  0  0  0  0  0
    2.4200   -5.8874    0.0000 N   0  0  0  0  0  0  0  0  0  0  0  0
    2.1595   -4.4101    0.0000 C   0  0  0  0  0  0  0  0  0  0  0  0
    0.7500   -3.8971    0.0000 P   0  0  0  0  0  0  0  0  0  0  0  0
    0.4895   -5.3743    0.0000 O   0  0  0  0  0  0  0  0  0  0  0  0
    1.5000   -2.5981    0.0000 O   0  0  0  0  0  0  0  0  0  0  0  0
    0.7500   -1.2990    0.0000 C   0  0  0  0  0  0  0  0  0  0  0  0
    1.5000    0.0000    0.0000 C   0  0  0  0  0  0  0  0  0  0  0  0
    0.7500    1.2990    0.0000 C   0  0  0  0  0  0  0  0  0  0  0  0
   -0.7500    1.2990    0.0000 C   0  0  0  0  0  0  0  0  0  0  0  0
   -1.5000    0.0000    0.0000 C   0  0  0  0  0  0  0  0  0  0  0  0
   -0.7500   -1.2990    0.0000 C   0  0  0  0  0  0  0  0  0  0  0  0
   -1.5000   -2.5981    0.0000 C   0  0  0  0  0  0  0  0  0  0  0  0
   -3.0000   -2.5981    0.0000 C   0  0  0  0  0  0  0  0  0  0  0  0
   -3.7500   -3.8971    0.0000 C   0  0  0  0  0  0  0  0  0  0  0  0
   -3.0000   -5.1962    0.0000 C   0  0  0  0  0  0  0  0  0  0  0  0
   -1.5000   -5.1962    0.0000 C   0  0  0  0  0  0  0  0  0  0  0  0
   -0.7500   -3.8971    0.0000 C   0  0  0  0  0  0  0  0  0  0  0  0
    4.0900   -7.8776    0.0000 C   0  0  0  0  0  0  0  0  0  0  0  0
    4.8714  -12.3092    0.0000 C   0  0  0  0  0  0  0  0  0  0  0  0
    3.7224  -13.2734    0.0000 C   0  0  0  0  0  0  0  0  0  0  0  0
    3.9828  -14.7506    0.0000 C   0  0  0  0  0  0  0  0  0  0  0  0
    2.8338  -15.7148    0.0000 O   0  0  0  0  0  0  0  0  0  0  0  0
    5.3924  -15.2637    0.0000 O   0  0  0  0  0  0  0  0  0  0  0  0
  1  2  2  0
  2  3  1  0
  2  4  1  0
  4  5  2  0
  5  6  1  0
  6  7  2  0
  7  8  1  0
  8  9  1  0
  9 10  2  0
 10 11  1  0
 11 12  2  0
 12 13  1  0
 13 14  1  0
 14 15  1  0
 15 16  1  0
 16 17  2  0
 16 18  1  0
 18 19  1  0
 19 20  2  0
 20 21  1  0
 21 22  2  0
 22 23  1  0
 23 24  2  0
 24 25  1  0
 25 26  2  0
 26 27  1  0
 27 28  2  0
 28 29  1  0
 29 30  2  0
 13 31  2  0
  7 32  1  0
 32 33  2  0
 33 34  1  0
 34 35  2  0
 34 36  1  0
 33  4  1  0
 31  9  1  0
 30 16  1  0
 24 19  1  0
 30 25  1  0
M  END
>  <Candidate_ID>  (20) 
CAND_R2_020

>  <Candidate_Name>  (20) 
APN-DOPO-nitrile-to-acid-all

>  <Parent_Seed_ID>  (20) 
TRAIN_019

>  <Parent_Name>  (20) 
APN-DOPO

>  <Transformation_Code>  (20) 
nitrile_to_acid_all

>  <Design_Family>  (20) 
P-N

>  <Preparation_Type>  (20) 
Additive

>  <Synthesis_Level>  (20) 
B

>  <Parent_Tanimoto_r3>  (20) 
0.6702127659574468

>  <Max_Train_Tanimoto_r3>  (20) 
0.6702127659574468

>  <Risk_Flags>  (20) 
candidate may be outside strict in-domain threshold

$$$$
CAND_R2_021 | APN-DOPO-nitrile-to-aminomethyl
     RDKit          2D

 34 38  0  0  0  0  0  0  0  0999 V2000
   -0.7667  -10.2571    0.0000 N   0  0  0  0  0  0  0  0  0  0  0  0
    0.6428  -10.7701    0.0000 C   0  0  0  0  0  0  0  0  0  0  0  0
    2.0524  -11.2832    0.0000 C   0  0  0  0  0  0  0  0  0  0  0  0
    3.2014  -10.3190    0.0000 C   0  0  0  0  0  0  0  0  0  0  0  0
    4.6110  -10.8320    0.0000 C   0  0  0  0  0  0  0  0  0  0  0  0
    5.7600   -9.8678    0.0000 O   0  0  0  0  0  0  0  0  0  0  0  0
    5.4996   -8.3906    0.0000 C   0  0  0  0  0  0  0  0  0  0  0  0
    6.6486   -7.4264    0.0000 C   0  0  0  0  0  0  0  0  0  0  0  0
    6.3882   -5.9492    0.0000 C   0  0  0  0  0  0  0  0  0  0  0  0
    4.9786   -5.4362    0.0000 C   0  0  0  0  0  0  0  0  0  0  0  0
    3.8296   -6.4004    0.0000 C   0  0  0  0  0  0  0  0  0  0  0  0
    2.4200   -5.8874    0.0000 N   0  0  0  0  0  0  0  0  0  0  0  0
    2.1595   -4.4101    0.0000 C   0  0  0  0  0  0  0  0  0  0  0  0
    0.7500   -3.8971    0.0000 P   0  0  0  0  0  0  0  0  0  0  0  0
    0.4895   -5.3743    0.0000 O   0  0  0  0  0  0  0  0  0  0  0  0
    1.5000   -2.5981    0.0000 O   0  0  0  0  0  0  0  0  0  0  0  0
    0.7500   -1.2990    0.0000 C   0  0  0  0  0  0  0  0  0  0  0  0
    1.5000    0.0000    0.0000 C   0  0  0  0  0  0  0  0  0  0  0  0
    0.7500    1.2990    0.0000 C   0  0  0  0  0  0  0  0  0  0  0  0
   -0.7500    1.2990    0.0000 C   0  0  0  0  0  0  0  0  0  0  0  0
   -1.5000    0.0000    0.0000 C   0  0  0  0  0  0  0  0  0  0  0  0
   -0.7500   -1.2990    0.0000 C   0  0  0  0  0  0  0  0  0  0  0  0
   -1.5000   -2.5981    0.0000 C   0  0  0  0  0  0  0  0  0  0  0  0
   -3.0000   -2.5981    0.0000 C   0  0  0  0  0  0  0  0  0  0  0  0
   -3.7500   -3.8971    0.0000 C   0  0  0  0  0  0  0  0  0  0  0  0
   -3.0000   -5.1962    0.0000 C   0  0  0  0  0  0  0  0  0  0  0  0
   -1.5000   -5.1962    0.0000 C   0  0  0  0  0  0  0  0  0  0  0  0
   -0.7500   -3.8971    0.0000 C   0  0  0  0  0  0  0  0  0  0  0  0
    4.0900   -7.8776    0.0000 C   0  0  0  0  0  0  0  0  0  0  0  0
    4.8714  -12.3092    0.0000 C   0  0  0  0  0  0  0  0  0  0  0  0
    3.7224  -13.2734    0.0000 C   0  0  0  0  0  0  0  0  0  0  0  0
    2.3128  -12.7604    0.0000 C   0  0  0  0  0  0  0  0  0  0  0  0
    1.1638  -13.7246    0.0000 C   0  0  0  0  0  0  0  0  0  0  0  0
    1.4242  -15.2018    0.0000 N   0  0  0  0  0  0  0  0  0  0  0  0
  1  2  3  0
  2  3  1  0
  3  4  2  0
  4  5  1  0
  5  6  1  0
  6  7  1  0
  7  8  2  0
  8  9  1  0
  9 10  2  0
 10 11  1  0
 11 12  1  0
 12 13  1  0
 13 14  1  0
 14 15  2  0
 14 16  1  0
 16 17  1  0
 17 18  2  0
 18 19  1  0
 19 20  2  0
 20 21  1  0
 21 22  2  0
 22 23  1  0
 23 24  2  0
 24 25  1  0
 25 26  2  0
 26 27  1  0
 27 28  2  0
 11 29  2  0
  5 30  2  0
 30 31  1  0
 31 32  2  0
 32 33  1  0
 33 34  1  0
 32  3  1  0
 29  7  1  0
 28 14  1  0
 22 17  1  0
 28 23  1  0
M  END
>  <Candidate_ID>  (21) 
CAND_R2_021

>  <Candidate_Name>  (21) 
APN-DOPO-nitrile-to-aminomethyl

>  <Parent_Seed_ID>  (21) 
TRAIN_019

>  <Parent_Name>  (21) 
APN-DOPO

>  <Transformation_Code>  (21) 
nitrile_to_aminomethyl

>  <Design_Family>  (21) 
P-N

>  <Preparation_Type>  (21) 
Co-curing

>  <Synthesis_Level>  (21) 
B

>  <Parent_Tanimoto_r3>  (21) 
0.7692307692307693

>  <Max_Train_Tanimoto_r3>  (21) 
0.7692307692307693

>  <Risk_Flags>  (21) 
none

$$$$
CAND_R2_022 | APN-DOPO-nitrile-to-aminomethyl-2
     RDKit          2D

 34 38  0  0  0  0  0  0  0  0999 V2000
    0.0147  -14.6887    0.0000 N   0  0  0  0  0  0  0  0  0  0  0  0
    1.1638  -13.7246    0.0000 C   0  0  0  0  0  0  0  0  0  0  0  0
    2.3128  -12.7604    0.0000 C   0  0  0  0  0  0  0  0  0  0  0  0
    2.0524  -11.2832    0.0000 C   0  0  0  0  0  0  0  0  0  0  0  0
    3.2014  -10.3190    0.0000 C   0  0  0  0  0  0  0  0  0  0  0  0
    4.6110  -10.8320    0.0000 C   0  0  0  0  0  0  0  0  0  0  0  0
    5.7600   -9.8678    0.0000 O   0  0  0  0  0  0  0  0  0  0  0  0
    5.4996   -8.3906    0.0000 C   0  0  0  0  0  0  0  0  0  0  0  0
    6.6486   -7.4264    0.0000 C   0  0  0  0  0  0  0  0  0  0  0  0
    6.3882   -5.9492    0.0000 C   0  0  0  0  0  0  0  0  0  0  0  0
    4.9786   -5.4362    0.0000 C   0  0  0  0  0  0  0  0  0  0  0  0
    3.8296   -6.4004    0.0000 C   0  0  0  0  0  0  0  0  0  0  0  0
    2.4200   -5.8874    0.0000 N   0  0  0  0  0  0  0  0  0  0  0  0
    2.1595   -4.4101    0.0000 C   0  0  0  0  0  0  0  0  0  0  0  0
    0.7500   -3.8971    0.0000 P   0  0  0  0  0  0  0  0  0  0  0  0
    0.4895   -5.3743    0.0000 O   0  0  0  0  0  0  0  0  0  0  0  0
    1.5000   -2.5981    0.0000 O   0  0  0  0  0  0  0  0  0  0  0  0
    0.7500   -1.2990    0.0000 C   0  0  0  0  0  0  0  0  0  0  0  0
    1.5000    0.0000    0.0000 C   0  0  0  0  0  0  0  0  0  0  0  0
    0.7500    1.2990    0.0000 C   0  0  0  0  0  0  0  0  0  0  0  0
   -0.7500    1.2990    0.0000 C   0  0  0  0  0  0  0  0  0  0  0  0
   -1.5000    0.0000    0.0000 C   0  0  0  0  0  0  0  0  0  0  0  0
   -0.7500   -1.2990    0.0000 C   0  0  0  0  0  0  0  0  0  0  0  0
   -1.5000   -2.5981    0.0000 C   0  0  0  0  0  0  0  0  0  0  0  0
   -3.0000   -2.5981    0.0000 C   0  0  0  0  0  0  0  0  0  0  0  0
   -3.7500   -3.8971    0.0000 C   0  0  0  0  0  0  0  0  0  0  0  0
   -3.0000   -5.1962    0.0000 C   0  0  0  0  0  0  0  0  0  0  0  0
   -1.5000   -5.1962    0.0000 C   0  0  0  0  0  0  0  0  0  0  0  0
   -0.7500   -3.8971    0.0000 C   0  0  0  0  0  0  0  0  0  0  0  0
    4.0900   -7.8776    0.0000 C   0  0  0  0  0  0  0  0  0  0  0  0
    4.8714  -12.3092    0.0000 C   0  0  0  0  0  0  0  0  0  0  0  0
    3.7224  -13.2734    0.0000 C   0  0  0  0  0  0  0  0  0  0  0  0
    3.9828  -14.7506    0.0000 C   0  0  0  0  0  0  0  0  0  0  0  0
    5.3924  -15.2637    0.0000 N   0  0  0  0  0  0  0  0  0  0  0  0
  1  2  3  0
  2  3  1  0
  3  4  2  0
  4  5  1  0
  5  6  2  0
  6  7  1  0
  7  8  1  0
  8  9  2  0
  9 10  1  0
 10 11  2  0
 11 12  1  0
 12 13  1  0
 13 14  1  0
 14 15  1  0
 15 16  2  0
 15 17  1  0
 17 18  1  0
 18 19  2  0
 19 20  1  0
 20 21  2  0
 21 22  1  0
 22 23  2  0
 23 24  1  0
 24 25  2  0
 25 26  1  0
 26 27  2  0
 27 28  1  0
 28 29  2  0
 12 30  2  0
  6 31  1  0
 31 32  2  0
 32 33  1  0
 33 34  1  0
 32  3  1  0
 30  8  1  0
 29 15  1  0
 23 18  1  0
 29 24  1  0
M  END
>  <Candidate_ID>  (22) 
CAND_R2_022

>  <Candidate_Name>  (22) 
APN-DOPO-nitrile-to-aminomethyl-2

>  <Parent_Seed_ID>  (22) 
TRAIN_019

>  <Parent_Name>  (22) 
APN-DOPO

>  <Transformation_Code>  (22) 
nitrile_to_aminomethyl

>  <Design_Family>  (22) 
P-N

>  <Preparation_Type>  (22) 
Co-curing

>  <Synthesis_Level>  (22) 
B

>  <Parent_Tanimoto_r3>  (22) 
0.7692307692307693

>  <Max_Train_Tanimoto_r3>  (22) 
0.7692307692307693

>  <Risk_Flags>  (22) 
none

$$$$
CAND_R2_023 | APN-DOPO-nitrile-to-aminomethyl-all
     RDKit          2D

 34 38  0  0  0  0  0  0  0  0999 V2000
   -0.2458  -13.2115    0.0000 N   0  0  0  0  0  0  0  0  0  0  0  0
    1.1638  -13.7246    0.0000 C   0  0  0  0  0  0  0  0  0  0  0  0
    2.3128  -12.7604    0.0000 C   0  0  0  0  0  0  0  0  0  0  0  0
    2.0524  -11.2832    0.0000 C   0  0  0  0  0  0  0  0  0  0  0  0
    3.2014  -10.3190    0.0000 C   0  0  0  0  0  0  0  0  0  0  0  0
    4.6110  -10.8320    0.0000 C   0  0  0  0  0  0  0  0  0  0  0  0
    5.7600   -9.8678    0.0000 O   0  0  0  0  0  0  0  0  0  0  0  0
    5.4996   -8.3906    0.0000 C   0  0  0  0  0  0  0  0  0  0  0  0
    6.6486   -7.4264    0.0000 C   0  0  0  0  0  0  0  0  0  0  0  0
    6.3882   -5.9492    0.0000 C   0  0  0  0  0  0  0  0  0  0  0  0
    4.9786   -5.4362    0.0000 C   0  0  0  0  0  0  0  0  0  0  0  0
    3.8296   -6.4004    0.0000 C   0  0  0  0  0  0  0  0  0  0  0  0
    2.4200   -5.8874    0.0000 N   0  0  0  0  0  0  0  0  0  0  0  0
    2.1595   -4.4101    0.0000 C   0  0  0  0  0  0  0  0  0  0  0  0
    0.7500   -3.8971    0.0000 P   0  0  0  0  0  0  0  0  0  0  0  0
    0.4895   -5.3743    0.0000 O   0  0  0  0  0  0  0  0  0  0  0  0
    1.5000   -2.5981    0.0000 O   0  0  0  0  0  0  0  0  0  0  0  0
    0.7500   -1.2990    0.0000 C   0  0  0  0  0  0  0  0  0  0  0  0
    1.5000    0.0000    0.0000 C   0  0  0  0  0  0  0  0  0  0  0  0
    0.7500    1.2990    0.0000 C   0  0  0  0  0  0  0  0  0  0  0  0
   -0.7500    1.2990    0.0000 C   0  0  0  0  0  0  0  0  0  0  0  0
   -1.5000    0.0000    0.0000 C   0  0  0  0  0  0  0  0  0  0  0  0
   -0.7500   -1.2990    0.0000 C   0  0  0  0  0  0  0  0  0  0  0  0
   -1.5000   -2.5981    0.0000 C   0  0  0  0  0  0  0  0  0  0  0  0
   -3.0000   -2.5981    0.0000 C   0  0  0  0  0  0  0  0  0  0  0  0
   -3.7500   -3.8971    0.0000 C   0  0  0  0  0  0  0  0  0  0  0  0
   -3.0000   -5.1962    0.0000 C   0  0  0  0  0  0  0  0  0  0  0  0
   -1.5000   -5.1962    0.0000 C   0  0  0  0  0  0  0  0  0  0  0  0
   -0.7500   -3.8971    0.0000 C   0  0  0  0  0  0  0  0  0  0  0  0
    4.0900   -7.8776    0.0000 C   0  0  0  0  0  0  0  0  0  0  0  0
    4.8714  -12.3092    0.0000 C   0  0  0  0  0  0  0  0  0  0  0  0
    3.7224  -13.2734    0.0000 C   0  0  0  0  0  0  0  0  0  0  0  0
    3.9828  -14.7506    0.0000 C   0  0  0  0  0  0  0  0  0  0  0  0
    5.3924  -15.2637    0.0000 N   0  0  0  0  0  0  0  0  0  0  0  0
  1  2  1  0
  2  3  1  0
  3  4  2  0
  4  5  1  0
  5  6  2  0
  6  7  1  0
  7  8  1  0
  8  9  2  0
  9 10  1  0
 10 11  2  0
 11 12  1  0
 12 13  1  0
 13 14  1  0
 14 15  1  0
 15 16  2  0
 15 17  1  0
 17 18  1  0
 18 19  2  0
 19 20  1  0
 20 21  2  0
 21 22  1  0
 22 23  2  0
 23 24  1  0
 24 25  2  0
 25 26  1  0
 26 27  2  0
 27 28  1  0
 28 29  2  0
 12 30  2  0
  6 31  1  0
 31 32  2  0
 32 33  1  0
 33 34  1  0
 32  3  1  0
 30  8  1  0
 29 15  1  0
 23 18  1  0
 29 24  1  0
M  END
>  <Candidate_ID>  (23) 
CAND_R2_023

>  <Candidate_Name>  (23) 
APN-DOPO-nitrile-to-aminomethyl-all

>  <Parent_Seed_ID>  (23) 
TRAIN_019

>  <Parent_Name>  (23) 
APN-DOPO

>  <Transformation_Code>  (23) 
nitrile_to_aminomethyl_all

>  <Design_Family>  (23) 
P-N

>  <Preparation_Type>  (23) 
Co-curing

>  <Synthesis_Level>  (23) 
B

>  <Parent_Tanimoto_r3>  (23) 
0.6774193548387096

>  <Max_Train_Tanimoto_r3>  (23) 
0.6774193548387096

>  <Risk_Flags>  (23) 
candidate may be outside strict in-domain threshold

$$$$
CAND_R2_024 | APN-DOPO-NH-methyl
     RDKit          2D

 35 39  0  0  0  0  0  0  0  0999 V2000
    3.8296   -6.4004    0.0000 C   0  0  0  0  0  0  0  0  0  0  0  0
    2.4200   -5.8874    0.0000 N   0  0  0  0  0  0  0  0  0  0  0  0
    2.1595   -4.4101    0.0000 C   0  0  0  0  0  0  0  0  0  0  0  0
    0.7500   -3.8971    0.0000 P   0  0  0  0  0  0  0  0  0  0  0  0
    0.4895   -5.3743    0.0000 O   0  0  0  0  0  0  0  0  0  0  0  0
    1.5000   -2.5981    0.0000 O   0  0  0  0  0  0  0  0  0  0  0  0
    0.7500   -1.2990    0.0000 C   0  0  0  0  0  0  0  0  0  0  0  0
    1.5000    0.0000    0.0000 C   0  0  0  0  0  0  0  0  0  0  0  0
    0.7500    1.2990    0.0000 C   0  0  0  0  0  0  0  0  0  0  0  0
   -0.7500    1.2990    0.0000 C   0  0  0  0  0  0  0  0  0  0  0  0
   -1.5000    0.0000    0.0000 C   0  0  0  0  0  0  0  0  0  0  0  0
   -0.7500   -1.2990    0.0000 C   0  0  0  0  0  0  0  0  0  0  0  0
   -1.5000   -2.5981    0.0000 C   0  0  0  0  0  0  0  0  0  0  0  0
   -3.0000   -2.5981    0.0000 C   0  0  0  0  0  0  0  0  0  0  0  0
   -3.7500   -3.8971    0.0000 C   0  0  0  0  0  0  0  0  0  0  0  0
   -3.0000   -5.1962    0.0000 C   0  0  0  0  0  0  0  0  0  0  0  0
   -1.5000   -5.1962    0.0000 C   0  0  0  0  0  0  0  0  0  0  0  0
   -0.7500   -3.8971    0.0000 C   0  0  0  0  0  0  0  0  0  0  0  0
    1.2709   -6.8515    0.0000 C   0  0  0  0  0  0  0  0  0  0  0  0
   -0.1386   -6.3385    0.0000 C   0  0  0  0  0  0  0  0  0  0  0  0
   -1.2877   -7.3027    0.0000 C   0  0  0  0  0  0  0  0  0  0  0  0
   -1.0272   -8.7799    0.0000 C   0  0  0  0  0  0  0  0  0  0  0  0
    0.3824   -9.2929    0.0000 C   0  0  0  0  0  0  0  0  0  0  0  0
    0.6428  -10.7701    0.0000 O   0  0  0  0  0  0  0  0  0  0  0  0
   -0.5062  -11.7343    0.0000 C   0  0  0  0  0  0  0  0  0  0  0  0
   -1.9158  -11.2213    0.0000 C   0  0  0  0  0  0  0  0  0  0  0  0
   -3.0648  -12.1855    0.0000 C   0  0  0  0  0  0  0  0  0  0  0  0
   -2.8044  -13.6627    0.0000 C   0  0  0  0  0  0  0  0  0  0  0  0
   -3.9534  -14.6269    0.0000 C   0  0  0  0  0  0  0  0  0  0  0  0
   -5.1025  -15.5910    0.0000 N   0  0  0  0  0  0  0  0  0  0  0  0
   -1.3948  -14.1757    0.0000 C   0  0  0  0  0  0  0  0  0  0  0  0
   -1.1344  -15.6529    0.0000 C   0  0  0  0  0  0  0  0  0  0  0  0
   -0.8739  -17.1301    0.0000 N   0  0  0  0  0  0  0  0  0  0  0  0
   -0.2458  -13.2115    0.0000 C   0  0  0  0  0  0  0  0  0  0  0  0
    1.5314   -8.3287    0.0000 C   0  0  0  0  0  0  0  0  0  0  0  0
  1  2  1  0
  2  3  1  0
  3  4  1  0
  4  5  2  0
  4  6  1  0
  6  7  1  0
  7  8  2  0
  8  9  1  0
  9 10  2  0
 10 11  1  0
 11 12  2  0
 12 13  1  0
 13 14  2  0
 14 15  1  0
 15 16  2  0
 16 17  1  0
 17 18  2  0
  2 19  1  0
 19 20  2  0
 20 21  1  0
 21 22  2  0
 22 23  1  0
 23 24  1  0
 24 25  1  0
 25 26  2  0
 26 27  1  0
 27 28  2  0
 28 29  1  0
 29 30  3  0
 28 31  1  0
 31 32  1  0
 32 33  3  0
 31 34  2  0
 23 35  2  0
 18  4  1  0
 35 19  1  0
 12  7  1  0
 18 13  1  0
 34 25  1  0
M  END
>  <Candidate_ID>  (24) 
CAND_R2_024

>  <Candidate_Name>  (24) 
APN-DOPO-NH-methyl

>  <Parent_Seed_ID>  (24) 
TRAIN_019

>  <Parent_Name>  (24) 
APN-DOPO

>  <Transformation_Code>  (24) 
NH_methyl

>  <Design_Family>  (24) 
P-N

>  <Preparation_Type>  (24) 
Additive

>  <Synthesis_Level>  (24) 
B

>  <Parent_Tanimoto_r3>  (24) 
0.6161616161616161

>  <Max_Train_Tanimoto_r3>  (24) 
0.6228070175438597

>  <Risk_Flags>  (24) 
large structural change from parent; candidate may be outside strict in-domain threshold

$$$$
CAND_R2_025 | APN-DOPO-NH-hydroxyethyl
     RDKit          2D

 37 41  0  0  0  0  0  0  0  0999 V2000
   -8.4425  -11.6106    0.0000 N   0  0  0  0  0  0  0  0  0  0  0  0
   -7.2935  -10.6464    0.0000 C   0  0  0  0  0  0  0  0  0  0  0  0
   -6.1444   -9.6822    0.0000 C   0  0  0  0  0  0  0  0  0  0  0  0
   -6.4049   -8.2050    0.0000 C   0  0  0  0  0  0  0  0  0  0  0  0
   -5.2558   -7.2408    0.0000 C   0  0  0  0  0  0  0  0  0  0  0  0
   -3.8463   -7.7538    0.0000 C   0  0  0  0  0  0  0  0  0  0  0  0
   -2.6972   -6.7897    0.0000 O   0  0  0  0  0  0  0  0  0  0  0  0
   -1.2877   -7.3027    0.0000 C   0  0  0  0  0  0  0  0  0  0  0  0
   -1.0272   -8.7799    0.0000 C   0  0  0  0  0  0  0  0  0  0  0  0
    0.3824   -9.2929    0.0000 C   0  0  0  0  0  0  0  0  0  0  0  0
    1.5314   -8.3287    0.0000 C   0  0  0  0  0  0  0  0  0  0  0  0
    1.2709   -6.8515    0.0000 C   0  0  0  0  0  0  0  0  0  0  0  0
    2.4200   -5.8874    0.0000 N   0  0  0  0  0  0  0  0  0  0  0  0
    3.8296   -6.4004    0.0000 C   0  0  0  0  0  0  0  0  0  0  0  0
    4.0900   -7.8776    0.0000 C   0  0  0  0  0  0  0  0  0  0  0  0
    5.4996   -8.3906    0.0000 O   0  0  0  0  0  0  0  0  0  0  0  0
    2.1595   -4.4101    0.0000 C   0  0  0  0  0  0  0  0  0  0  0  0
    0.7500   -3.8971    0.0000 P   0  0  0  0  0  0  0  0  0  0  0  0
    0.4895   -5.3743    0.0000 O   0  0  0  0  0  0  0  0  0  0  0  0
    1.5000   -2.5981    0.0000 O   0  0  0  0  0  0  0  0  0  0  0  0
    0.7500   -1.2990    0.0000 C   0  0  0  0  0  0  0  0  0  0  0  0
    1.5000    0.0000    0.0000 C   0  0  0  0  0  0  0  0  0  0  0  0
    0.7500    1.2990    0.0000 C   0  0  0  0  0  0  0  0  0  0  0  0
   -0.7500    1.2990    0.0000 C   0  0  0  0  0  0  0  0  0  0  0  0
   -1.5000    0.0000    0.0000 C   0  0  0  0  0  0  0  0  0  0  0  0
   -0.7500   -1.2990    0.0000 C   0  0  0  0  0  0  0  0  0  0  0  0
   -1.5000   -2.5981    0.0000 C   0  0  0  0  0  0  0  0  0  0  0  0
   -3.0000   -2.5981    0.0000 C   0  0  0  0  0  0  0  0  0  0  0  0
   -3.7500   -3.8971    0.0000 C   0  0  0  0  0  0  0  0  0  0  0  0
   -3.0000   -5.1962    0.0000 C   0  0  0  0  0  0  0  0  0  0  0  0
   -1.5000   -5.1962    0.0000 C   0  0  0  0  0  0  0  0  0  0  0  0
   -0.7500   -3.8971    0.0000 C   0  0  0  0  0  0  0  0  0  0  0  0
   -0.1386   -6.3385    0.0000 C   0  0  0  0  0  0  0  0  0  0  0  0
   -3.5858   -9.2311    0.0000 C   0  0  0  0  0  0  0  0  0  0  0  0
   -4.7349  -10.1952    0.0000 C   0  0  0  0  0  0  0  0  0  0  0  0
   -4.4744  -11.6724    0.0000 C   0  0  0  0  0  0  0  0  0  0  0  0
   -4.2139  -13.1497    0.0000 N   0  0  0  0  0  0  0  0  0  0  0  0
  1  2  3  0
  2  3  1  0
  3  4  2  0
  4  5  1  0
  5  6  2  0
  6  7  1  0
  7  8  1  0
  8  9  2  0
  9 10  1  0
 10 11  2  0
 11 12  1  0
 12 13  1  0
 13 14  1  0
 14 15  1  0
 15 16  1  0
 13 17  1  0
 17 18  1  0
 18 19  2  0
 18 20  1  0
 20 21  1  0
 21 22  2  0
 22 23  1  0
 23 24  2  0
 24 25  1  0
 25 26  2  0
 26 27  1  0
 27 28  2  0
 28 29  1  0
 29 30  2  0
 30 31  1  0
 31 32  2  0
 12 33  2  0
  6 34  1  0
 34 35  2  0
 35 36  1  0
 36 37  3  0
 35  3  1  0
 33  8  1  0
 32 18  1  0
 26 21  1  0
 32 27  1  0
M  END
>  <Candidate_ID>  (25) 
CAND_R2_025

>  <Candidate_Name>  (25) 
APN-DOPO-NH-hydroxyethyl

>  <Parent_Seed_ID>  (25) 
TRAIN_019

>  <Parent_Name>  (25) 
APN-DOPO

>  <Transformation_Code>  (25) 
NH_hydroxyethyl

>  <Design_Family>  (25) 
P-N

>  <Preparation_Type>  (25) 
Additive

>  <Synthesis_Level>  (25) 
B

>  <Parent_Tanimoto_r3>  (25) 
0.5714285714285714

>  <Max_Train_Tanimoto_r3>  (25) 
0.6814159292035398

>  <Risk_Flags>  (25) 
large structural change from parent; candidate may be outside strict in-domain threshold

$$$$
CAND_R2_026 | APN-DOPO-NH-glycidyl
     RDKit          2D

 38 43  0  0  0  0  0  0  0  0999 V2000
   -8.4425  -11.6106    0.0000 N   0  0  0  0  0  0  0  0  0  0  0  0
   -7.2935  -10.6464    0.0000 C   0  0  0  0  0  0  0  0  0  0  0  0
   -6.1444   -9.6822    0.0000 C   0  0  0  0  0  0  0  0  0  0  0  0
   -6.4049   -8.2050    0.0000 C   0  0  0  0  0  0  0  0  0  0  0  0
   -5.2558   -7.2408    0.0000 C   0  0  0  0  0  0  0  0  0  0  0  0
   -3.8463   -7.7538    0.0000 C   0  0  0  0  0  0  0  0  0  0  0  0
   -2.6972   -6.7897    0.0000 O   0  0  0  0  0  0  0  0  0  0  0  0
   -1.2877   -7.3027    0.0000 C   0  0  0  0  0  0  0  0  0  0  0  0
   -1.0272   -8.7799    0.0000 C   0  0  0  0  0  0  0  0  0  0  0  0
    0.3824   -9.2929    0.0000 C   0  0  0  0  0  0  0  0  0  0  0  0
    1.5314   -8.3287    0.0000 C   0  0  0  0  0  0  0  0  0  0  0  0
    1.2709   -6.8515    0.0000 C   0  0  0  0  0  0  0  0  0  0  0  0
    2.4200   -5.8874    0.0000 N   0  0  0  0  0  0  0  0  0  0  0  0
    3.8296   -6.4004    0.0000 C   0  0  0  0  0  0  0  0  0  0  0  0
    4.0900   -7.8776    0.0000 C   0  0  0  0  0  0  0  0  0  0  0  0
    5.0542   -9.0267    0.0000 C   0  0  0  0  0  0  0  0  0  0  0  0
    3.5770   -9.2871    0.0000 O   0  0  0  0  0  0  0  0  0  0  0  0
    2.1595   -4.4101    0.0000 C   0  0  0  0  0  0  0  0  0  0  0  0
    0.7500   -3.8971    0.0000 P   0  0  0  0  0  0  0  0  0  0  0  0
    0.4895   -5.3743    0.0000 O   0  0  0  0  0  0  0  0  0  0  0  0
    1.5000   -2.5981    0.0000 O   0  0  0  0  0  0  0  0  0  0  0  0
    0.7500   -1.2990    0.0000 C   0  0  0  0  0  0  0  0  0  0  0  0
    1.5000    0.0000    0.0000 C   0  0  0  0  0  0  0  0  0  0  0  0
    0.7500    1.2990    0.0000 C   0  0  0  0  0  0  0  0  0  0  0  0
   -0.7500    1.2990    0.0000 C   0  0  0  0  0  0  0  0  0  0  0  0
   -1.5000    0.0000    0.0000 C   0  0  0  0  0  0  0  0  0  0  0  0
   -0.7500   -1.2990    0.0000 C   0  0  0  0  0  0  0  0  0  0  0  0
   -1.5000   -2.5981    0.0000 C   0  0  0  0  0  0  0  0  0  0  0  0
   -3.0000   -2.5981    0.0000 C   0  0  0  0  0  0  0  0  0  0  0  0
   -3.7500   -3.8971    0.0000 C   0  0  0  0  0  0  0  0  0  0  0  0
   -3.0000   -5.1962    0.0000 C   0  0  0  0  0  0  0  0  0  0  0  0
   -1.5000   -5.1962    0.0000 C   0  0  0  0  0  0  0  0  0  0  0  0
   -0.7500   -3.8971    0.0000 C   0  0  0  0  0  0  0  0  0  0  0  0
   -0.1386   -6.3385    0.0000 C   0  0  0  0  0  0  0  0  0  0  0  0
   -3.5858   -9.2311    0.0000 C   0  0  0  0  0  0  0  0  0  0  0  0
   -4.7349  -10.1952    0.0000 C   0  0  0  0  0  0  0  0  0  0  0  0
   -4.4744  -11.6724    0.0000 C   0  0  0  0  0  0  0  0  0  0  0  0
   -4.2139  -13.1497    0.0000 N   0  0  0  0  0  0  0  0  0  0  0  0
  1  2  3  0
  2  3  1  0
  3  4  2  0
  4  5  1  0
  5  6  2  0
  6  7  1  0
  7  8  1  0
  8  9  2  0
  9 10  1  0
 10 11  2  0
 11 12  1  0
 12 13  1  0
 13 14  1  0
 14 15  1  0
 15 16  1  0
 16 17  1  0
 13 18  1  0
 18 19  1  0
 19 20  2  0
 19 21  1  0
 21 22  1  0
 22 23  2  0
 23 24  1  0
 24 25  2  0
 25 26  1  0
 26 27  2  0
 27 28  1  0
 28 29  2  0
 29 30  1  0
 30 31  2  0
 31 32  1  0
 32 33  2  0
 12 34  2  0
  6 35  1  0
 35 36  2  0
 36 37  1  0
 37 38  3  0
 36  3  1  0
 34  8  1  0
 17 15  1  0
 33 19  1  0
 27 22  1  0
 33 28  1  0
M  END
>  <Candidate_ID>  (26) 
CAND_R2_026

>  <Candidate_Name>  (26) 
APN-DOPO-NH-glycidyl

>  <Parent_Seed_ID>  (26) 
TRAIN_019

>  <Parent_Name>  (26) 
APN-DOPO

>  <Transformation_Code>  (26) 
NH_glycidyl

>  <Design_Family>  (26) 
P-N

>  <Preparation_Type>  (26) 
Co-curing

>  <Synthesis_Level>  (26) 
B

>  <Parent_Tanimoto_r3>  (26) 
0.5754716981132075

>  <Max_Train_Tanimoto_r3>  (26) 
0.6551724137931034

>  <Risk_Flags>  (26) 
large structural change from parent; candidate may be outside strict in-domain threshold

$$$$
CAND_R2_027 | CTP-DOPO-amino
     RDKit          2D

193223  0  0  0  0  0  0  0  0999 V2000
   -9.9476   -6.0870    0.0000 N   0  0  0  0  0  0  0  0  0  0  0  0
   -9.1976   -7.3861    0.0000 C   0  0  0  0  0  0  0  0  0  0  0  0
   -7.6976   -7.3861    0.0000 C   0  0  0  0  0  0  0  0  0  0  0  0
   -6.9476   -8.6851    0.0000 C   0  0  0  0  0  0  0  0  0  0  0  0
   -5.4476   -8.6851    0.0000 N   0  0  0  0  0  0  0  0  0  0  0  0
   -4.6976   -9.9841    0.0000 C   0  0  0  0  0  0  0  0  0  0  0  0
   -3.1976   -9.9841    0.0000 C   0  0  0  0  0  0  0  0  0  0  0  0
   -2.4476  -11.2832    0.0000 C   0  0  0  0  0  0  0  0  0  0  0  0
   -0.9476  -11.2832    0.0000 C   0  0  0  0  0  0  0  0  0  0  0  0
   -0.1976   -9.9841    0.0000 C   0  0  0  0  0  0  0  0  0  0  0  0
    1.3024   -9.9841    0.0000 O   0  0  0  0  0  0  0  0  0  0  0  0
    2.0524  -11.2832    0.0000 P   0  0  0  0  0  0  0  0  0  0  0  0
    3.2014  -10.3190    0.0000 O   0  0  0  0  0  0  0  0  0  0  0  0
    2.9410   -8.8418    0.0000 C   0  0  0  0  0  0  0  0  0  0  0  0
    1.5314   -8.3287    0.0000 C   0  0  0  0  0  0  0  0  0  0  0  0
    1.2709   -6.8515    0.0000 C   0  0  0  0  0  0  0  0  0  0  0  0
    2.4200   -5.8874    0.0000 C   0  0  0  0  0  0  0  0  0  0  0  0
    2.1595   -4.4101    0.0000 C   0  0  0  0  0  0  0  0  0  0  0  0
    0.7500   -3.8971    0.0000 N   0  0  0  0  0  0  0  0  0  0  0  0
   -0.3991   -4.8613    0.0000 C   0  0  0  0  0  0  0  0  0  0  0  0
   -0.1386   -6.3385    0.0000 C   0  0  0  0  0  0  0  0  0  0  0  0
   -1.2877   -7.3027    0.0000 C   0  0  0  0  0  0  0  0  0  0  0  0
   -2.6972   -6.7897    0.0000 C   0  0  0  0  0  0  0  0  0  0  0  0
   -3.8463   -7.7538    0.0000 O   0  0  0  0  0  0  0  0  0  0  0  0
   -2.9577   -5.3124    0.0000 C   0  0  0  0  0  0  0  0  0  0  0  0
   -1.8086   -4.3483    0.0000 C   0  0  0  0  0  0  0  0  0  0  0  0
    3.3086   -3.4460    0.0000 P   0  0  0  0  0  0  0  0  0  0  0  0
    4.0586   -4.7450    0.0000 O   0  0  0  0  0  0  0  0  0  0  0  0
    2.1595   -2.4818    0.0000 O   0  0  0  0  0  0  0  0  0  0  0  0
    2.4200   -1.0046    0.0000 C   0  0  0  0  0  0  0  0  0  0  0  0
    1.2709   -0.0404    0.0000 C   0  0  0  0  0  0  0  0  0  0  0  0
    1.5314    1.4368    0.0000 C   0  0  0  0  0  0  0  0  0  0  0  0
    2.9410    1.9499    0.0000 C   0  0  0  0  0  0  0  0  0  0  0  0
    4.0900    0.9857    0.0000 C   0  0  0  0  0  0  0  0  0  0  0  0
    3.8296   -0.4915    0.0000 C   0  0  0  0  0  0  0  0  0  0  0  0
    4.9786   -1.4557    0.0000 C   0  0  0  0  0  0  0  0  0  0  0  0
    6.3882   -0.9427    0.0000 C   0  0  0  0  0  0  0  0  0  0  0  0
    7.5372   -1.9069    0.0000 C   0  0  0  0  0  0  0  0  0  0  0  0
    7.2768   -3.3841    0.0000 C   0  0  0  0  0  0  0  0  0  0  0  0
    5.8672   -3.8971    0.0000 C   0  0  0  0  0  0  0  0  0  0  0  0
    4.7181   -2.9329    0.0000 C   0  0  0  0  0  0  0  0  0  0  0  0
    3.8296   -6.4004    0.0000 C   0  0  0  0  0  0  0  0  0  0  0  0
    4.0900   -7.8776    0.0000 C   0  0  0  0  0  0  0  0  0  0  0  0
    3.2014  -12.2474    0.0000 N   0  0  0  0  0  0  0  0  0  0  0  0
    2.9410  -13.7246    0.0000 P   0  0  0  0  0  0  0  0  0  0  0  0
    3.2014  -15.2018    0.0000 O   0  0  0  0  0  0  0  0  0  0  0  0
    4.6110  -15.7148    0.0000 C   0  0  0  0  0  0  0  0  0  0  0  0
    4.8714  -17.1920    0.0000 C   0  0  0  0  0  0  0  0  0  0  0  0
    6.2810  -17.7050    0.0000 C   0  0  0  0  0  0  0  0  0  0  0  0
    7.4300  -16.7409    0.0000 C   0  0  0  0  0  0  0  0  0  0  0  0
    8.8396  -17.2539    0.0000 C   0  0  0  0  0  0  0  0  0  0  0  0
    9.1001  -18.7311    0.0000 N   0  0  0  0  0  0  0  0  0  0  0  0
   10.5096  -19.2441    0.0000 C   0  0  0  0  0  0  0  0  0  0  0  0
   10.7701  -20.7214    0.0000 C   0  0  0  0  0  0  0  0  0  0  0  0
   12.1796  -21.2344    0.0000 C   0  0  0  0  0  0  0  0  0  0  0  0
   13.3287  -20.2702    0.0000 C   0  0  0  0  0  0  0  0  0  0  0  0
   14.7382  -20.7832    0.0000 O   0  0  0  0  0  0  0  0  0  0  0  0
   13.0682  -18.7930    0.0000 C   0  0  0  0  0  0  0  0  0  0  0  0
   11.6587  -18.2800    0.0000 C   0  0  0  0  0  0  0  0  0  0  0  0
    9.9887  -16.2897    0.0000 P   0  0  0  0  0  0  0  0  0  0  0  0
   10.7387  -17.5888    0.0000 O   0  0  0  0  0  0  0  0  0  0  0  0
    8.8396  -15.3255    0.0000 O   0  0  0  0  0  0  0  0  0  0  0  0
    9.1001  -13.8483    0.0000 C   0  0  0  0  0  0  0  0  0  0  0  0
    7.9510  -12.8841    0.0000 C   0  0  0  0  0  0  0  0  0  0  0  0
    8.2115  -11.4069    0.0000 C   0  0  0  0  0  0  0  0  0  0  0  0
    9.6210  -10.8939    0.0000 C   0  0  0  0  0  0  0  0  0  0  0  0
   10.7701  -11.8581    0.0000 C   0  0  0  0  0  0  0  0  0  0  0  0
   10.5096  -13.3353    0.0000 C   0  0  0  0  0  0  0  0  0  0  0  0
   11.6587  -14.2995    0.0000 C   0  0  0  0  0  0  0  0  0  0  0  0
   13.0682  -13.7864    0.0000 C   0  0  0  0  0  0  0  0  0  0  0  0
   14.2173  -14.7506    0.0000 C   0  0  0  0  0  0  0  0  0  0  0  0
   13.9568  -16.2278    0.0000 C   0  0  0  0  0  0  0  0  0  0  0  0
   12.5473  -16.7409    0.0000 C   0  0  0  0  0  0  0  0  0  0  0  0
   11.3982  -15.7767    0.0000 C   0  0  0  0  0  0  0  0  0  0  0  0
    7.1696  -15.2637    0.0000 C   0  0  0  0  0  0  0  0  0  0  0  0
    5.7600  -14.7506    0.0000 C   0  0  0  0  0  0  0  0  0  0  0  0
    4.4410  -13.7246    0.0000 O   0  0  0  0  0  0  0  0  0  0  0  0
    5.1910  -12.4255    0.0000 C   0  0  0  0  0  0  0  0  0  0  0  0
    4.4410  -11.1265    0.0000 C   0  0  0  0  0  0  0  0  0  0  0  0
    5.1910   -9.8275    0.0000 C   0  0  0  0  0  0  0  0  0  0  0  0
    6.6910   -9.8275    0.0000 C   0  0  0  0  0  0  0  0  0  0  0  0
    7.4410   -8.5284    0.0000 C   0  0  0  0  0  0  0  0  0  0  0  0
    6.6910   -7.2294    0.0000 N   0  0  0  0  0  0  0  0  0  0  0  0
    5.1910   -7.2294    0.0000 C   0  0  0  0  0  0  0  0  0  0  0  0
    4.4410   -5.9303    0.0000 C   0  0  0  0  0  0  0  0  0  0  0  0
    2.9410   -5.9303    0.0000 C   0  0  0  0  0  0  0  0  0  0  0  0
    2.1910   -7.2294    0.0000 C   0  0  0  0  0  0  0  0  0  0  0  0
    0.7355   -6.8664    0.0000 O   0  0  0  0  0  0  0  0  0  0  0  0
    2.9410   -8.5284    0.0000 C   0  0  0  0  0  0  0  0  0  0  0  0
    4.4410   -8.5284    0.0000 C   0  0  0  0  0  0  0  0  0  0  0  0
    8.9410   -8.5284    0.0000 P   0  0  0  0  0  0  0  0  0  0  0  0
    8.6805  -10.0056    0.0000 O   0  0  0  0  0  0  0  0  0  0  0  0
    8.6805   -7.0512    0.0000 O   0  0  0  0  0  0  0  0  0  0  0  0
    9.8296   -6.0870    0.0000 C   0  0  0  0  0  0  0  0  0  0  0  0
    9.5691   -4.6098    0.0000 C   0  0  0  0  0  0  0  0  0  0  0  0
   10.7181   -3.6456    0.0000 C   0  0  0  0  0  0  0  0  0  0  0  0
   12.1277   -4.1587    0.0000 C   0  0  0  0  0  0  0  0  0  0  0  0
   12.3882   -5.6359    0.0000 C   0  0  0  0  0  0  0  0  0  0  0  0
   11.2391   -6.6001    0.0000 C   0  0  0  0  0  0  0  0  0  0  0  0
   11.4996   -8.0773    0.0000 C   0  0  0  0  0  0  0  0  0  0  0  0
   12.9091   -8.5903    0.0000 C   0  0  0  0  0  0  0  0  0  0  0  0
   13.1696  -10.0675    0.0000 C   0  0  0  0  0  0  0  0  0  0  0  0
   12.0205  -11.0317    0.0000 C   0  0  0  0  0  0  0  0  0  0  0  0
   10.6110  -10.5187    0.0000 C   0  0  0  0  0  0  0  0  0  0  0  0
   10.3505   -9.0414    0.0000 C   0  0  0  0  0  0  0  0  0  0  0  0
    7.4410  -11.1265    0.0000 C   0  0  0  0  0  0  0  0  0  0  0  0
    6.6910  -12.4255    0.0000 C   0  0  0  0  0  0  0  0  0  0  0  0
    1.5314  -14.2376    0.0000 N   0  0  0  0  0  0  0  0  0  0  0  0
    0.3824  -13.2734    0.0000 P   0  0  0  0  0  0  0  0  0  0  0  0
   -1.0272  -12.7604    0.0000 O   0  0  0  0  0  0  0  0  0  0  0  0
   -2.1763  -13.7246    0.0000 C   0  0  0  0  0  0  0  0  0  0  0  0
   -3.5858  -13.2115    0.0000 C   0  0  0  0  0  0  0  0  0  0  0  0
   -4.7349  -14.1757    0.0000 C   0  0  0  0  0  0  0  0  0  0  0  0
   -4.4744  -15.6529    0.0000 C   0  0  0  0  0  0  0  0  0  0  0  0
   -5.6235  -16.6171    0.0000 C   0  0  0  0  0  0  0  0  0  0  0  0
   -7.0330  -16.1041    0.0000 N   0  0  0  0  0  0  0  0  0  0  0  0
   -8.1821  -17.0683    0.0000 C   0  0  0  0  0  0  0  0  0  0  0  0
   -9.5916  -16.5552    0.0000 C   0  0  0  0  0  0  0  0  0  0  0  0
  -10.7407  -17.5194    0.0000 C   0  0  0  0  0  0  0  0  0  0  0  0
  -10.4802  -18.9966    0.0000 C   0  0  0  0  0  0  0  0  0  0  0  0
  -11.6293  -19.9608    0.0000 O   0  0  0  0  0  0  0  0  0  0  0  0
   -9.0707  -19.5097    0.0000 C   0  0  0  0  0  0  0  0  0  0  0  0
   -7.9216  -18.5455    0.0000 C   0  0  0  0  0  0  0  0  0  0  0  0
   -5.3630  -18.0943    0.0000 P   0  0  0  0  0  0  0  0  0  0  0  0
   -3.9534  -17.5813    0.0000 O   0  0  0  0  0  0  0  0  0  0  0  0
   -6.8630  -18.0943    0.0000 O   0  0  0  0  0  0  0  0  0  0  0  0
   -7.6130  -19.3934    0.0000 C   0  0  0  0  0  0  0  0  0  0  0  0
   -9.1130  -19.3934    0.0000 C   0  0  0  0  0  0  0  0  0  0  0  0
   -9.8630  -20.6924    0.0000 C   0  0  0  0  0  0  0  0  0  0  0  0
   -9.1130  -21.9914    0.0000 C   0  0  0  0  0  0  0  0  0  0  0  0
   -7.6130  -21.9914    0.0000 C   0  0  0  0  0  0  0  0  0  0  0  0
   -6.8630  -20.6924    0.0000 C   0  0  0  0  0  0  0  0  0  0  0  0
   -5.3630  -20.6924    0.0000 C   0  0  0  0  0  0  0  0  0  0  0  0
   -4.6130  -21.9914    0.0000 C   0  0  0  0  0  0  0  0  0  0  0  0
   -3.1130  -21.9914    0.0000 C   0  0  0  0  0  0  0  0  0  0  0  0
   -2.3630  -20.6924    0.0000 C   0  0  0  0  0  0  0  0  0  0  0  0
   -3.1130  -19.3934    0.0000 C   0  0  0  0  0  0  0  0  0  0  0  0
   -4.6130  -19.3934    0.0000 C   0  0  0  0  0  0  0  0  0  0  0  0
   -3.0648  -16.1660    0.0000 C   0  0  0  0  0  0  0  0  0  0  0  0
   -1.9158  -15.2018    0.0000 C   0  0  0  0  0  0  0  0  0  0  0  0
   -0.3676  -14.5725    0.0000 O   0  0  0  0  0  0  0  0  0  0  0  0
   -1.8676  -14.5725    0.0000 C   0  0  0  0  0  0  0  0  0  0  0  0
   -2.6176  -13.2734    0.0000 C   0  0  0  0  0  0  0  0  0  0  0  0
   -4.1176  -13.2734    0.0000 C   0  0  0  0  0  0  0  0  0  0  0  0
   -4.8676  -14.5725    0.0000 C   0  0  0  0  0  0  0  0  0  0  0  0
   -6.3676  -14.5725    0.0000 C   0  0  0  0  0  0  0  0  0  0  0  0
   -7.1176  -13.2734    0.0000 N   0  0  0  0  0  0  0  0  0  0  0  0
   -8.6176  -13.2734    0.0000 C   0  0  0  0  0  0  0  0  0  0  0  0
   -9.3676  -11.9744    0.0000 C   0  0  0  0  0  0  0  0  0  0  0  0
  -10.8676  -11.9744    0.0000 C   0  0  0  0  0  0  0  0  0  0  0  0
  -11.6176  -13.2734    0.0000 C   0  0  0  0  0  0  0  0  0  0  0  0
  -13.1176  -13.2734    0.0000 O   0  0  0  0  0  0  0  0  0  0  0  0
  -10.8676  -14.5725    0.0000 C   0  0  0  0  0  0  0  0  0  0  0  0
   -9.3676  -14.5725    0.0000 C   0  0  0  0  0  0  0  0  0  0  0  0
   -7.1176  -15.8715    0.0000 P   0  0  0  0  0  0  0  0  0  0  0  0
   -5.8741  -16.7103    0.0000 O   0  0  0  0  0  0  0  0  0  0  0  0
   -8.2667  -14.9073    0.0000 O   0  0  0  0  0  0  0  0  0  0  0  0
   -9.6763  -15.4203    0.0000 C   0  0  0  0  0  0  0  0  0  0  0  0
  -10.8253  -14.4562    0.0000 C   0  0  0  0  0  0  0  0  0  0  0  0
  -12.2349  -14.9692    0.0000 C   0  0  0  0  0  0  0  0  0  0  0  0
  -12.4953  -16.4464    0.0000 C   0  0  0  0  0  0  0  0  0  0  0  0
  -11.3463  -17.4106    0.0000 C   0  0  0  0  0  0  0  0  0  0  0  0
   -9.9367  -16.8976    0.0000 C   0  0  0  0  0  0  0  0  0  0  0  0
   -8.7877  -17.8617    0.0000 C   0  0  0  0  0  0  0  0  0  0  0  0
   -9.0481  -19.3389    0.0000 C   0  0  0  0  0  0  0  0  0  0  0  0
   -7.8991  -20.3031    0.0000 C   0  0  0  0  0  0  0  0  0  0  0  0
   -6.4895  -19.7901    0.0000 C   0  0  0  0  0  0  0  0  0  0  0  0
   -6.2291  -18.3129    0.0000 C   0  0  0  0  0  0  0  0  0  0  0  0
   -7.3781  -17.3487    0.0000 C   0  0  0  0  0  0  0  0  0  0  0  0
   -4.1176  -15.8715    0.0000 C   0  0  0  0  0  0  0  0  0  0  0  0
   -2.6176  -15.8715    0.0000 C   0  0  0  0  0  0  0  0  0  0  0  0
    0.6428  -11.7962    0.0000 N   0  0  0  0  0  0  0  0  0  0  0  0
   -0.9476   -8.6851    0.0000 C   0  0  0  0  0  0  0  0  0  0  0  0
   -2.4476   -8.6851    0.0000 C   0  0  0  0  0  0  0  0  0  0  0  0
   -5.4476  -11.2832    0.0000 P   0  0  0  0  0  0  0  0  0  0  0  0
   -4.0381  -11.7962    0.0000 O   0  0  0  0  0  0  0  0  0  0  0  0
   -6.5967  -10.3190    0.0000 O   0  0  0  0  0  0  0  0  0  0  0  0
   -8.0062  -10.8320    0.0000 C   0  0  0  0  0  0  0  0  0  0  0  0
   -9.1553   -9.8678    0.0000 C   0  0  0  0  0  0  0  0  0  0  0  0
  -10.5648  -10.3809    0.0000 C   0  0  0  0  0  0  0  0  0  0  0  0
  -10.8253  -11.8581    0.0000 C   0  0  0  0  0  0  0  0  0  0  0  0
   -9.6763  -12.8223    0.0000 C   0  0  0  0  0  0  0  0  0  0  0  0
   -8.2667  -12.3092    0.0000 C   0  0  0  0  0  0  0  0  0  0  0  0
   -7.1176  -13.2734    0.0000 C   0  0  0  0  0  0  0  0  0  0  0  0
   -7.3781  -14.7506    0.0000 C   0  0  0  0  0  0  0  0  0  0  0  0
   -6.2291  -15.7148    0.0000 C   0  0  0  0  0  0  0  0  0  0  0  0
   -4.8195  -15.2018    0.0000 C   0  0  0  0  0  0  0  0  0  0  0  0
   -4.5590  -13.7246    0.0000 C   0  0  0  0  0  0  0  0  0  0  0  0
   -5.7081  -12.7604    0.0000 C   0  0  0  0  0  0  0  0  0  0  0  0
   -7.6976   -9.9841    0.0000 C   0  0  0  0  0  0  0  0  0  0  0  0
   -9.1976   -9.9841    0.0000 C   0  0  0  0  0  0  0  0  0  0  0  0
   -9.9476   -8.6851    0.0000 C   0  0  0  0  0  0  0  0  0  0  0  0
  -11.4476   -8.6851    0.0000 O   0  0  0  0  0  0  0  0  0  0  0  0
  1  2  1  0
  2  3  2  0
  3  4  1  0
  4  5  1  0
  5  6  1  0
  6  7  1  0
  7  8  2  0
  8  9  1  0
  9 10  2  0
 10 11  1  0
 11 12  1  0
 12 13  1  0
 13 14  1  0
 14 15  2  0
 15 16  1  0
 16 17  2  0
 17 18  1  0
 18 19  1  0
 19 20  1  0
 20 21  2  0
 21 22  1  0
 22 23  2  0
 23 24  1  0
 23 25  1  0
 25 26  2  0
 18 27  1  0
 27 28  2  0
 27 29  1  0
 29 30  1  0
 30 31  2  0
 31 32  1  0
 32 33  2  0
 33 34  1  0
 34 35  2  0
 35 36  1  0
 36 37  2  0
 37 38  1  0
 38 39  2  0
 39 40  1  0
 40 41  2  0
 17 42  1  0
 42 43  2  0
 12 44  2  0
 44 45  1  0
 45 46  1  0
 46 47  1  0
 47 48  2  0
 48 49  1  0
 49 50  2  0
 50 51  1  0
 51 52  1  0
 52 53  1  0
 53 54  2  0
 54 55  1  0
 55 56  2  0
 56 57  1  0
 56 58  1  0
 58 59  2  0
 51 60  1  0
 60 61  2  0
 60 62  1  0
 62 63  1  0
 63 64  2  0
 64 65  1  0
 65 66  2  0
 66 67  1  0
 67 68  2  0
 68 69  1  0
 69 70  2  0
 70 71  1  0
 71 72  2  0
 72 73  1  0
 73 74  2  0
 50 75  1  0
 75 76  2  0
 45 77  1  0
 77 78  1  0
 78 79  2  0
 79 80  1  0
 80 81  2  0
 81 82  1  0
 82 83  1  0
 83 84  1  0
 84 85  2  0
 85 86  1  0
 86 87  2  0
 87 88  1  0
 87 89  1  0
 89 90  2  0
 82 91  1  0
 91 92  2  0
 91 93  1  0
 93 94  1  0
 94 95  2  0
 95 96  1  0
 96 97  2  0
 97 98  1  0
 98 99  2  0
 99100  1  0
100101  2  0
101102  1  0
102103  2  0
103104  1  0
104105  2  0
 81106  1  0
106107  2  0
 45108  2  0
108109  1  0
109110  1  0
110111  1  0
111112  2  0
112113  1  0
113114  2  0
114115  1  0
115116  1  0
116117  1  0
117118  2  0
118119  1  0
119120  2  0
120121  1  0
120122  1  0
122123  2  0
115124  1  0
124125  2  0
124126  1  0
126127  1  0
127128  2  0
128129  1  0
129130  2  0
130131  1  0
131132  2  0
132133  1  0
133134  2  0
134135  1  0
135136  2  0
136137  1  0
137138  2  0
114139  1  0
139140  2  0
109141  1  0
141142  1  0
142143  2  0
143144  1  0
144145  2  0
145146  1  0
146147  1  0
147148  1  0
148149  2  0
149150  1  0
150151  2  0
151152  1  0
151153  1  0
153154  2  0
146155  1  0
155156  2  0
155157  1  0
157158  1  0
158159  2  0
159160  1  0
160161  2  0
161162  1  0
162163  2  0
163164  1  0
164165  2  0
165166  1  0
166167  2  0
167168  1  0
168169  2  0
145170  1  0
170171  2  0
109172  2  0
 10173  1  0
173174  2  0
  6175  1  0
175176  2  0
175177  1  0
177178  1  0
178179  2  0
179180  1  0
180181  2  0
181182  1  0
182183  2  0
183184  1  0
184185  2  0
185186  1  0
186187  2  0
187188  1  0
188189  2  0
  4190  2  0
190191  1  0
191192  2  0
192193  1  0
192  2  1  0
174  7  1  0
189175  1  0
172 12  1  0
183178  1  0
189184  1  0
 43 14  1  0
 76 47  1  0
107 78  1  0
140111  1  0
171142  1  0
 26 20  1  0
 41 27  1  0
 59 53  1  0
 74 60  1  0
 90 84  1  0
105 91  1  0
123117  1  0
138124  1  0
154148  1  0
169155  1  0
 35 30  1  0
 41 36  1  0
 68 63  1  0
 74 69  1  0
 99 94  1  0
105100  1  0
132127  1  0
138133  1  0
163158  1  0
169164  1  0
M  END
>  <Candidate_ID>  (27) 
CAND_R2_027

>  <Candidate_Name>  (27) 
CTP-DOPO-amino

>  <Parent_Seed_ID>  (27) 
TRAIN_041

>  <Parent_Name>  (27) 
CTP-DOPO

>  <Transformation_Code>  (27) 
amino

>  <Design_Family>  (27) 
P-N

>  <Preparation_Type>  (27) 
Co-curing

>  <Synthesis_Level>  (27) 
C

>  <Parent_Tanimoto_r3>  (27) 
0.8333333333333334

>  <Max_Train_Tanimoto_r3>  (27) 
0.8333333333333334

>  <Risk_Flags>  (27) 
high molecular weight; high DOPO count; exploratory only; excluded from formal screening

$$$$
CAND_R2_028 | CTP-DOPO-hydroxy
     RDKit          2D

193223  0  0  0  0  0  0  0  0999 V2000
   -4.0381  -11.7962    0.0000 O   0  0  0  0  0  0  0  0  0  0  0  0
   -5.4476  -11.2832    0.0000 P   0  0  0  0  0  0  0  0  0  0  0  0
   -4.6976   -9.9841    0.0000 C   0  0  0  0  0  0  0  0  0  0  0  0
   -5.4476   -8.6851    0.0000 N   0  0  0  0  0  0  0  0  0  0  0  0
   -6.9476   -8.6851    0.0000 C   0  0  0  0  0  0  0  0  0  0  0  0
   -7.6976   -7.3861    0.0000 C   0  0  0  0  0  0  0  0  0  0  0  0
   -9.1976   -7.3861    0.0000 C   0  0  0  0  0  0  0  0  0  0  0  0
   -9.9476   -8.6851    0.0000 C   0  0  0  0  0  0  0  0  0  0  0  0
  -11.4476   -8.6851    0.0000 O   0  0  0  0  0  0  0  0  0  0  0  0
   -9.1976   -9.9841    0.0000 C   0  0  0  0  0  0  0  0  0  0  0  0
   -7.6976   -9.9841    0.0000 C   0  0  0  0  0  0  0  0  0  0  0  0
   -3.1976   -9.9841    0.0000 C   0  0  0  0  0  0  0  0  0  0  0  0
   -2.4476  -11.2832    0.0000 C   0  0  0  0  0  0  0  0  0  0  0  0
   -0.9476  -11.2832    0.0000 C   0  0  0  0  0  0  0  0  0  0  0  0
   -0.1976   -9.9841    0.0000 C   0  0  0  0  0  0  0  0  0  0  0  0
    1.3024   -9.9841    0.0000 O   0  0  0  0  0  0  0  0  0  0  0  0
    2.0524  -11.2832    0.0000 P   0  0  0  0  0  0  0  0  0  0  0  0
    3.2014  -10.3190    0.0000 O   0  0  0  0  0  0  0  0  0  0  0  0
    2.9410   -8.8418    0.0000 C   0  0  0  0  0  0  0  0  0  0  0  0
    1.5314   -8.3287    0.0000 C   0  0  0  0  0  0  0  0  0  0  0  0
    1.2709   -6.8515    0.0000 C   0  0  0  0  0  0  0  0  0  0  0  0
    2.4200   -5.8874    0.0000 C   0  0  0  0  0  0  0  0  0  0  0  0
    2.1595   -4.4101    0.0000 C   0  0  0  0  0  0  0  0  0  0  0  0
    0.7500   -3.8971    0.0000 N   0  0  0  0  0  0  0  0  0  0  0  0
   -0.3991   -4.8613    0.0000 C   0  0  0  0  0  0  0  0  0  0  0  0
   -0.1386   -6.3385    0.0000 C   0  0  0  0  0  0  0  0  0  0  0  0
   -1.2877   -7.3027    0.0000 C   0  0  0  0  0  0  0  0  0  0  0  0
   -2.6972   -6.7897    0.0000 C   0  0  0  0  0  0  0  0  0  0  0  0
   -3.8463   -7.7538    0.0000 O   0  0  0  0  0  0  0  0  0  0  0  0
   -2.9577   -5.3124    0.0000 C   0  0  0  0  0  0  0  0  0  0  0  0
   -1.8086   -4.3483    0.0000 C   0  0  0  0  0  0  0  0  0  0  0  0
    3.3086   -3.4460    0.0000 P   0  0  0  0  0  0  0  0  0  0  0  0
    4.0586   -4.7450    0.0000 O   0  0  0  0  0  0  0  0  0  0  0  0
    2.1595   -2.4818    0.0000 O   0  0  0  0  0  0  0  0  0  0  0  0
    2.4200   -1.0046    0.0000 C   0  0  0  0  0  0  0  0  0  0  0  0
    1.2709   -0.0404    0.0000 C   0  0  0  0  0  0  0  0  0  0  0  0
    1.5314    1.4368    0.0000 C   0  0  0  0  0  0  0  0  0  0  0  0
    2.9410    1.9499    0.0000 C   0  0  0  0  0  0  0  0  0  0  0  0
    4.0900    0.9857    0.0000 C   0  0  0  0  0  0  0  0  0  0  0  0
    3.8296   -0.4915    0.0000 C   0  0  0  0  0  0  0  0  0  0  0  0
    4.9786   -1.4557    0.0000 C   0  0  0  0  0  0  0  0  0  0  0  0
    6.3882   -0.9427    0.0000 C   0  0  0  0  0  0  0  0  0  0  0  0
    7.5372   -1.9069    0.0000 C   0  0  0  0  0  0  0  0  0  0  0  0
    7.2768   -3.3841    0.0000 C   0  0  0  0  0  0  0  0  0  0  0  0
    5.8672   -3.8971    0.0000 C   0  0  0  0  0  0  0  0  0  0  0  0
    4.7181   -2.9329    0.0000 C   0  0  0  0  0  0  0  0  0  0  0  0
    3.8296   -6.4004    0.0000 C   0  0  0  0  0  0  0  0  0  0  0  0
    4.0900   -7.8776    0.0000 C   0  0  0  0  0  0  0  0  0  0  0  0
    3.2014  -12.2474    0.0000 N   0  0  0  0  0  0  0  0  0  0  0  0
    2.9410  -13.7246    0.0000 P   0  0  0  0  0  0  0  0  0  0  0  0
    3.2014  -15.2018    0.0000 O   0  0  0  0  0  0  0  0  0  0  0  0
    4.6110  -15.7148    0.0000 C   0  0  0  0  0  0  0  0  0  0  0  0
    4.8714  -17.1920    0.0000 C   0  0  0  0  0  0  0  0  0  0  0  0
    6.2810  -17.7050    0.0000 C   0  0  0  0  0  0  0  0  0  0  0  0
    7.4300  -16.7409    0.0000 C   0  0  0  0  0  0  0  0  0  0  0  0
    8.8396  -17.2539    0.0000 C   0  0  0  0  0  0  0  0  0  0  0  0
    9.1001  -18.7311    0.0000 N   0  0  0  0  0  0  0  0  0  0  0  0
   10.5096  -19.2441    0.0000 C   0  0  0  0  0  0  0  0  0  0  0  0
   10.7701  -20.7214    0.0000 C   0  0  0  0  0  0  0  0  0  0  0  0
   12.1796  -21.2344    0.0000 C   0  0  0  0  0  0  0  0  0  0  0  0
   13.3287  -20.2702    0.0000 C   0  0  0  0  0  0  0  0  0  0  0  0
   14.7382  -20.7832    0.0000 O   0  0  0  0  0  0  0  0  0  0  0  0
   13.0682  -18.7930    0.0000 C   0  0  0  0  0  0  0  0  0  0  0  0
   11.6587  -18.2800    0.0000 C   0  0  0  0  0  0  0  0  0  0  0  0
    9.9887  -16.2897    0.0000 P   0  0  0  0  0  0  0  0  0  0  0  0
   10.7387  -17.5888    0.0000 O   0  0  0  0  0  0  0  0  0  0  0  0
    8.8396  -15.3255    0.0000 O   0  0  0  0  0  0  0  0  0  0  0  0
    9.1001  -13.8483    0.0000 C   0  0  0  0  0  0  0  0  0  0  0  0
    7.9510  -12.8841    0.0000 C   0  0  0  0  0  0  0  0  0  0  0  0
    8.2115  -11.4069    0.0000 C   0  0  0  0  0  0  0  0  0  0  0  0
    9.6210  -10.8939    0.0000 C   0  0  0  0  0  0  0  0  0  0  0  0
   10.7701  -11.8581    0.0000 C   0  0  0  0  0  0  0  0  0  0  0  0
   10.5096  -13.3353    0.0000 C   0  0  0  0  0  0  0  0  0  0  0  0
   11.6587  -14.2995    0.0000 C   0  0  0  0  0  0  0  0  0  0  0  0
   13.0682  -13.7864    0.0000 C   0  0  0  0  0  0  0  0  0  0  0  0
   14.2173  -14.7506    0.0000 C   0  0  0  0  0  0  0  0  0  0  0  0
   13.9568  -16.2278    0.0000 C   0  0  0  0  0  0  0  0  0  0  0  0
   12.5473  -16.7409    0.0000 C   0  0  0  0  0  0  0  0  0  0  0  0
   11.3982  -15.7767    0.0000 C   0  0  0  0  0  0  0  0  0  0  0  0
    7.1696  -15.2637    0.0000 C   0  0  0  0  0  0  0  0  0  0  0  0
    5.7600  -14.7506    0.0000 C   0  0  0  0  0  0  0  0  0  0  0  0
    4.4410  -13.7246    0.0000 O   0  0  0  0  0  0  0  0  0  0  0  0
    5.1910  -12.4255    0.0000 C   0  0  0  0  0  0  0  0  0  0  0  0
    4.4410  -11.1265    0.0000 C   0  0  0  0  0  0  0  0  0  0  0  0
    5.1910   -9.8275    0.0000 C   0  0  0  0  0  0  0  0  0  0  0  0
    6.6910   -9.8275    0.0000 C   0  0  0  0  0  0  0  0  0  0  0  0
    7.4410   -8.5284    0.0000 C   0  0  0  0  0  0  0  0  0  0  0  0
    6.6910   -7.2294    0.0000 N   0  0  0  0  0  0  0  0  0  0  0  0
    5.1910   -7.2294    0.0000 C   0  0  0  0  0  0  0  0  0  0  0  0
    4.4410   -5.9303    0.0000 C   0  0  0  0  0  0  0  0  0  0  0  0
    2.9410   -5.9303    0.0000 C   0  0  0  0  0  0  0  0  0  0  0  0
    2.1910   -7.2294    0.0000 C   0  0  0  0  0  0  0  0  0  0  0  0
    0.7355   -6.8664    0.0000 O   0  0  0  0  0  0  0  0  0  0  0  0
    2.9410   -8.5284    0.0000 C   0  0  0  0  0  0  0  0  0  0  0  0
    4.4410   -8.5284    0.0000 C   0  0  0  0  0  0  0  0  0  0  0  0
    8.9410   -8.5284    0.0000 P   0  0  0  0  0  0  0  0  0  0  0  0
    8.6805  -10.0056    0.0000 O   0  0  0  0  0  0  0  0  0  0  0  0
    8.6805   -7.0512    0.0000 O   0  0  0  0  0  0  0  0  0  0  0  0
    9.8296   -6.0870    0.0000 C   0  0  0  0  0  0  0  0  0  0  0  0
    9.5691   -4.6098    0.0000 C   0  0  0  0  0  0  0  0  0  0  0  0
   10.7181   -3.6456    0.0000 C   0  0  0  0  0  0  0  0  0  0  0  0
   12.1277   -4.1587    0.0000 C   0  0  0  0  0  0  0  0  0  0  0  0
   12.3882   -5.6359    0.0000 C   0  0  0  0  0  0  0  0  0  0  0  0
   11.2391   -6.6001    0.0000 C   0  0  0  0  0  0  0  0  0  0  0  0
   11.4996   -8.0773    0.0000 C   0  0  0  0  0  0  0  0  0  0  0  0
   12.9091   -8.5903    0.0000 C   0  0  0  0  0  0  0  0  0  0  0  0
   13.1696  -10.0675    0.0000 C   0  0  0  0  0  0  0  0  0  0  0  0
   12.0205  -11.0317    0.0000 C   0  0  0  0  0  0  0  0  0  0  0  0
   10.6110  -10.5187    0.0000 C   0  0  0  0  0  0  0  0  0  0  0  0
   10.3505   -9.0414    0.0000 C   0  0  0  0  0  0  0  0  0  0  0  0
    7.4410  -11.1265    0.0000 C   0  0  0  0  0  0  0  0  0  0  0  0
    6.6910  -12.4255    0.0000 C   0  0  0  0  0  0  0  0  0  0  0  0
    1.5314  -14.2376    0.0000 N   0  0  0  0  0  0  0  0  0  0  0  0
    0.3824  -13.2734    0.0000 P   0  0  0  0  0  0  0  0  0  0  0  0
   -1.0272  -12.7604    0.0000 O   0  0  0  0  0  0  0  0  0  0  0  0
   -2.1763  -13.7246    0.0000 C   0  0  0  0  0  0  0  0  0  0  0  0
   -3.5858  -13.2115    0.0000 C   0  0  0  0  0  0  0  0  0  0  0  0
   -4.7349  -14.1757    0.0000 C   0  0  0  0  0  0  0  0  0  0  0  0
   -4.4744  -15.6529    0.0000 C   0  0  0  0  0  0  0  0  0  0  0  0
   -5.6235  -16.6171    0.0000 C   0  0  0  0  0  0  0  0  0  0  0  0
   -7.0330  -16.1041    0.0000 N   0  0  0  0  0  0  0  0  0  0  0  0
   -8.1821  -17.0683    0.0000 C   0  0  0  0  0  0  0  0  0  0  0  0
   -9.5916  -16.5552    0.0000 C   0  0  0  0  0  0  0  0  0  0  0  0
  -10.7407  -17.5194    0.0000 C   0  0  0  0  0  0  0  0  0  0  0  0
  -10.4802  -18.9966    0.0000 C   0  0  0  0  0  0  0  0  0  0  0  0
  -11.6293  -19.9608    0.0000 O   0  0  0  0  0  0  0  0  0  0  0  0
   -9.0707  -19.5097    0.0000 C   0  0  0  0  0  0  0  0  0  0  0  0
   -7.9216  -18.5455    0.0000 C   0  0  0  0  0  0  0  0  0  0  0  0
   -5.3630  -18.0943    0.0000 P   0  0  0  0  0  0  0  0  0  0  0  0
   -3.9534  -17.5813    0.0000 O   0  0  0  0  0  0  0  0  0  0  0  0
   -6.8630  -18.0943    0.0000 O   0  0  0  0  0  0  0  0  0  0  0  0
   -7.6130  -19.3934    0.0000 C   0  0  0  0  0  0  0  0  0  0  0  0
   -9.1130  -19.3934    0.0000 C   0  0  0  0  0  0  0  0  0  0  0  0
   -9.8630  -20.6924    0.0000 C   0  0  0  0  0  0  0  0  0  0  0  0
   -9.1130  -21.9914    0.0000 C   0  0  0  0  0  0  0  0  0  0  0  0
   -7.6130  -21.9914    0.0000 C   0  0  0  0  0  0  0  0  0  0  0  0
   -6.8630  -20.6924    0.0000 C   0  0  0  0  0  0  0  0  0  0  0  0
   -5.3630  -20.6924    0.0000 C   0  0  0  0  0  0  0  0  0  0  0  0
   -4.6130  -21.9914    0.0000 C   0  0  0  0  0  0  0  0  0  0  0  0
   -3.1130  -21.9914    0.0000 C   0  0  0  0  0  0  0  0  0  0  0  0
   -2.3630  -20.6924    0.0000 C   0  0  0  0  0  0  0  0  0  0  0  0
   -3.1130  -19.3934    0.0000 C   0  0  0  0  0  0  0  0  0  0  0  0
   -4.6130  -19.3934    0.0000 C   0  0  0  0  0  0  0  0  0  0  0  0
   -3.0648  -16.1660    0.0000 C   0  0  0  0  0  0  0  0  0  0  0  0
   -1.9158  -15.2018    0.0000 C   0  0  0  0  0  0  0  0  0  0  0  0
   -0.3676  -14.5725    0.0000 O   0  0  0  0  0  0  0  0  0  0  0  0
   -1.8676  -14.5725    0.0000 C   0  0  0  0  0  0  0  0  0  0  0  0
   -2.6176  -13.2734    0.0000 C   0  0  0  0  0  0  0  0  0  0  0  0
   -4.1176  -13.2734    0.0000 C   0  0  0  0  0  0  0  0  0  0  0  0
   -4.8676  -14.5725    0.0000 C   0  0  0  0  0  0  0  0  0  0  0  0
   -6.3676  -14.5725    0.0000 C   0  0  0  0  0  0  0  0  0  0  0  0
   -7.1176  -13.2734    0.0000 N   0  0  0  0  0  0  0  0  0  0  0  0
   -8.6176  -13.2734    0.0000 C   0  0  0  0  0  0  0  0  0  0  0  0
   -9.3676  -11.9744    0.0000 C   0  0  0  0  0  0  0  0  0  0  0  0
  -10.8676  -11.9744    0.0000 C   0  0  0  0  0  0  0  0  0  0  0  0
  -11.6176  -13.2734    0.0000 C   0  0  0  0  0  0  0  0  0  0  0  0
  -13.1176  -13.2734    0.0000 O   0  0  0  0  0  0  0  0  0  0  0  0
  -10.8676  -14.5725    0.0000 C   0  0  0  0  0  0  0  0  0  0  0  0
  -11.6176  -15.8715    0.0000 O   0  0  0  0  0  0  0  0  0  0  0  0
   -9.3676  -14.5725    0.0000 C   0  0  0  0  0  0  0  0  0  0  0  0
   -7.1176  -15.8715    0.0000 P   0  0  0  0  0  0  0  0  0  0  0  0
   -5.8741  -16.7103    0.0000 O   0  0  0  0  0  0  0  0  0  0  0  0
   -8.2667  -14.9073    0.0000 O   0  0  0  0  0  0  0  0  0  0  0  0
   -9.6763  -15.4203    0.0000 C   0  0  0  0  0  0  0  0  0  0  0  0
  -10.8253  -14.4562    0.0000 C   0  0  0  0  0  0  0  0  0  0  0  0
  -12.2349  -14.9692    0.0000 C   0  0  0  0  0  0  0  0  0  0  0  0
  -12.4953  -16.4464    0.0000 C   0  0  0  0  0  0  0  0  0  0  0  0
  -11.3463  -17.4106    0.0000 C   0  0  0  0  0  0  0  0  0  0  0  0
   -9.9367  -16.8976    0.0000 C   0  0  0  0  0  0  0  0  0  0  0  0
   -8.7877  -17.8617    0.0000 C   0  0  0  0  0  0  0  0  0  0  0  0
   -9.0481  -19.3389    0.0000 C   0  0  0  0  0  0  0  0  0  0  0  0
   -7.8991  -20.3031    0.0000 C   0  0  0  0  0  0  0  0  0  0  0  0
   -6.4895  -19.7901    0.0000 C   0  0  0  0  0  0  0  0  0  0  0  0
   -6.2291  -18.3129    0.0000 C   0  0  0  0  0  0  0  0  0  0  0  0
   -7.3781  -17.3487    0.0000 C   0  0  0  0  0  0  0  0  0  0  0  0
   -4.1176  -15.8715    0.0000 C   0  0  0  0  0  0  0  0  0  0  0  0
   -2.6176  -15.8715    0.0000 C   0  0  0  0  0  0  0  0  0  0  0  0
    0.6428  -11.7962    0.0000 N   0  0  0  0  0  0  0  0  0  0  0  0
   -0.9476   -8.6851    0.0000 C   0  0  0  0  0  0  0  0  0  0  0  0
   -2.4476   -8.6851    0.0000 C   0  0  0  0  0  0  0  0  0  0  0  0
   -6.5967  -10.3190    0.0000 O   0  0  0  0  0  0  0  0  0  0  0  0
   -8.0062  -10.8320    0.0000 C   0  0  0  0  0  0  0  0  0  0  0  0
   -9.1553   -9.8678    0.0000 C   0  0  0  0  0  0  0  0  0  0  0  0
  -10.5648  -10.3809    0.0000 C   0  0  0  0  0  0  0  0  0  0  0  0
  -10.8253  -11.8581    0.0000 C   0  0  0  0  0  0  0  0  0  0  0  0
   -9.6763  -12.8223    0.0000 C   0  0  0  0  0  0  0  0  0  0  0  0
   -8.2667  -12.3092    0.0000 C   0  0  0  0  0  0  0  0  0  0  0  0
   -7.1176  -13.2734    0.0000 C   0  0  0  0  0  0  0  0  0  0  0  0
   -7.3781  -14.7506    0.0000 C   0  0  0  0  0  0  0  0  0  0  0  0
   -6.2291  -15.7148    0.0000 C   0  0  0  0  0  0  0  0  0  0  0  0
   -4.8195  -15.2018    0.0000 C   0  0  0  0  0  0  0  0  0  0  0  0
   -4.5590  -13.7246    0.0000 C   0  0  0  0  0  0  0  0  0  0  0  0
   -5.7081  -12.7604    0.0000 C   0  0  0  0  0  0  0  0  0  0  0  0
  1  2  2  0
  2  3  1  0
  3  4  1  0
  4  5  1  0
  5  6  2  0
  6  7  1  0
  7  8  2  0
  8  9  1  0
  8 10  1  0
 10 11  2  0
  3 12  1  0
 12 13  2  0
 13 14  1  0
 14 15  2  0
 15 16  1  0
 16 17  1  0
 17 18  1  0
 18 19  1  0
 19 20  2  0
 20 21  1  0
 21 22  2  0
 22 23  1  0
 23 24  1  0
 24 25  1  0
 25 26  2  0
 26 27  1  0
 27 28  2  0
 28 29  1  0
 28 30  1  0
 30 31  2  0
 23 32  1  0
 32 33  2  0
 32 34  1  0
 34 35  1  0
 35 36  2  0
 36 37  1  0
 37 38  2  0
 38 39  1  0
 39 40  2  0
 40 41  1  0
 41 42  2  0
 42 43  1  0
 43 44  2  0
 44 45  1  0
 45 46  2  0
 22 47  1  0
 47 48  2  0
 17 49  2  0
 49 50  1  0
 50 51  1  0
 51 52  1  0
 52 53  2  0
 53 54  1  0
 54 55  2  0
 55 56  1  0
 56 57  1  0
 57 58  1  0
 58 59  2  0
 59 60  1  0
 60 61  2  0
 61 62  1  0
 61 63  1  0
 63 64  2  0
 56 65  1  0
 65 66  2  0
 65 67  1  0
 67 68  1  0
 68 69  2  0
 69 70  1  0
 70 71  2  0
 71 72  1  0
 72 73  2  0
 73 74  1  0
 74 75  2  0
 75 76  1  0
 76 77  2  0
 77 78  1  0
 78 79  2  0
 55 80  1  0
 80 81  2  0
 50 82  1  0
 82 83  1  0
 83 84  2  0
 84 85  1  0
 85 86  2  0
 86 87  1  0
 87 88  1  0
 88 89  1  0
 89 90  2  0
 90 91  1  0
 91 92  2  0
 92 93  1  0
 92 94  1  0
 94 95  2  0
 87 96  1  0
 96 97  2  0
 96 98  1  0
 98 99  1  0
 99100  2  0
100101  1  0
101102  2  0
102103  1  0
103104  2  0
104105  1  0
105106  2  0
106107  1  0
107108  2  0
108109  1  0
109110  2  0
 86111  1  0
111112  2  0
 50113  2  0
113114  1  0
114115  1  0
115116  1  0
116117  2  0
117118  1  0
118119  2  0
119120  1  0
120121  1  0
121122  1  0
122123  2  0
123124  1  0
124125  2  0
125126  1  0
125127  1  0
127128  2  0
120129  1  0
129130  2  0
129131  1  0
131132  1  0
132133  2  0
133134  1  0
134135  2  0
135136  1  0
136137  2  0
137138  1  0
138139  2  0
139140  1  0
140141  2  0
141142  1  0
142143  2  0
119144  1  0
144145  2  0
114146  1  0
146147  1  0
147148  2  0
148149  1  0
149150  2  0
150151  1  0
151152  1  0
152153  1  0
153154  2  0
154155  1  0
155156  2  0
156157  1  0
156158  1  0
158159  1  0
158160  2  0
151161  1  0
161162  2  0
161163  1  0
163164  1  0
164165  2  0
165166  1  0
166167  2  0
167168  1  0
168169  2  0
169170  1  0
170171  2  0
171172  1  0
172173  2  0
173174  1  0
174175  2  0
150176  1  0
176177  2  0
114178  2  0
 15179  1  0
179180  2  0
  2181  1  0
181182  1  0
182183  2  0
183184  1  0
184185  2  0
185186  1  0
186187  2  0
187188  1  0
188189  2  0
189190  1  0
190191  2  0
191192  1  0
192193  2  0
193  2  1  0
 11  5  1  0
180 12  1  0
187182  1  0
193188  1  0
178 17  1  0
 48 19  1  0
 81 52  1  0
112 83  1  0
145116  1  0
177147  1  0
 31 25  1  0
 46 32  1  0
 64 58  1  0
 79 65  1  0
 95 89  1  0
110 96  1  0
128122  1  0
143129  1  0
160153  1  0
175161  1  0
 40 35  1  0
 46 41  1  0
 73 68  1  0
 79 74  1  0
104 99  1  0
110105  1  0
137132  1  0
143138  1  0
169164  1  0
175170  1  0
M  END
>  <Candidate_ID>  (28) 
CAND_R2_028

>  <Candidate_Name>  (28) 
CTP-DOPO-hydroxy

>  <Parent_Seed_ID>  (28) 
TRAIN_041

>  <Parent_Name>  (28) 
CTP-DOPO

>  <Transformation_Code>  (28) 
hydroxy

>  <Design_Family>  (28) 
P-N

>  <Preparation_Type>  (28) 
Additive

>  <Synthesis_Level>  (28) 
C

>  <Parent_Tanimoto_r3>  (28) 
0.8522727272727273

>  <Max_Train_Tanimoto_r3>  (28) 
0.8522727272727273

>  <Risk_Flags>  (28) 
high molecular weight; high DOPO count; exploratory only; excluded from formal screening

$$$$
CAND_R2_029 | CTP-DOPO-boronic-acid
     RDKit          2D

195225  0  0  0  0  0  0  0  0999 V2000
   -4.0381  -11.7962    0.0000 O   0  0  0  0  0  0  0  0  0  0  0  0
   -5.4476  -11.2832    0.0000 P   0  0  0  0  0  0  0  0  0  0  0  0
   -4.6976   -9.9841    0.0000 C   0  0  0  0  0  0  0  0  0  0  0  0
   -5.4476   -8.6851    0.0000 N   0  0  0  0  0  0  0  0  0  0  0  0
   -6.9476   -8.6851    0.0000 C   0  0  0  0  0  0  0  0  0  0  0  0
   -7.6976   -7.3861    0.0000 C   0  0  0  0  0  0  0  0  0  0  0  0
   -9.1976   -7.3861    0.0000 C   0  0  0  0  0  0  0  0  0  0  0  0
   -9.9476   -8.6851    0.0000 C   0  0  0  0  0  0  0  0  0  0  0  0
  -11.4476   -8.6851    0.0000 O   0  0  0  0  0  0  0  0  0  0  0  0
   -9.1976   -9.9841    0.0000 C   0  0  0  0  0  0  0  0  0  0  0  0
   -7.6976   -9.9841    0.0000 C   0  0  0  0  0  0  0  0  0  0  0  0
   -3.1976   -9.9841    0.0000 C   0  0  0  0  0  0  0  0  0  0  0  0
   -2.4476  -11.2832    0.0000 C   0  0  0  0  0  0  0  0  0  0  0  0
   -0.9476  -11.2832    0.0000 C   0  0  0  0  0  0  0  0  0  0  0  0
   -0.1976   -9.9841    0.0000 C   0  0  0  0  0  0  0  0  0  0  0  0
    1.3024   -9.9841    0.0000 O   0  0  0  0  0  0  0  0  0  0  0  0
    2.0524  -11.2832    0.0000 P   0  0  0  0  0  0  0  0  0  0  0  0
    3.2014  -10.3190    0.0000 O   0  0  0  0  0  0  0  0  0  0  0  0
    2.9410   -8.8418    0.0000 C   0  0  0  0  0  0  0  0  0  0  0  0
    1.5314   -8.3287    0.0000 C   0  0  0  0  0  0  0  0  0  0  0  0
    1.2709   -6.8515    0.0000 C   0  0  0  0  0  0  0  0  0  0  0  0
    2.4200   -5.8874    0.0000 C   0  0  0  0  0  0  0  0  0  0  0  0
    2.1595   -4.4101    0.0000 C   0  0  0  0  0  0  0  0  0  0  0  0
    0.7500   -3.8971    0.0000 N   0  0  0  0  0  0  0  0  0  0  0  0
   -0.3991   -4.8613    0.0000 C   0  0  0  0  0  0  0  0  0  0  0  0
   -0.1386   -6.3385    0.0000 C   0  0  0  0  0  0  0  0  0  0  0  0
   -1.2877   -7.3027    0.0000 C   0  0  0  0  0  0  0  0  0  0  0  0
   -2.6972   -6.7897    0.0000 C   0  0  0  0  0  0  0  0  0  0  0  0
   -3.8463   -7.7538    0.0000 O   0  0  0  0  0  0  0  0  0  0  0  0
   -2.9577   -5.3124    0.0000 C   0  0  0  0  0  0  0  0  0  0  0  0
   -1.8086   -4.3483    0.0000 C   0  0  0  0  0  0  0  0  0  0  0  0
    3.3086   -3.4460    0.0000 P   0  0  0  0  0  0  0  0  0  0  0  0
    4.0586   -4.7450    0.0000 O   0  0  0  0  0  0  0  0  0  0  0  0
    2.1595   -2.4818    0.0000 O   0  0  0  0  0  0  0  0  0  0  0  0
    2.4200   -1.0046    0.0000 C   0  0  0  0  0  0  0  0  0  0  0  0
    1.2709   -0.0404    0.0000 C   0  0  0  0  0  0  0  0  0  0  0  0
    1.5314    1.4368    0.0000 C   0  0  0  0  0  0  0  0  0  0  0  0
    2.9410    1.9499    0.0000 C   0  0  0  0  0  0  0  0  0  0  0  0
    4.0900    0.9857    0.0000 C   0  0  0  0  0  0  0  0  0  0  0  0
    3.8296   -0.4915    0.0000 C   0  0  0  0  0  0  0  0  0  0  0  0
    4.9786   -1.4557    0.0000 C   0  0  0  0  0  0  0  0  0  0  0  0
    6.3882   -0.9427    0.0000 C   0  0  0  0  0  0  0  0  0  0  0  0
    7.5372   -1.9069    0.0000 C   0  0  0  0  0  0  0  0  0  0  0  0
    7.2768   -3.3841    0.0000 C   0  0  0  0  0  0  0  0  0  0  0  0
    5.8672   -3.8971    0.0000 C   0  0  0  0  0  0  0  0  0  0  0  0
    4.7181   -2.9329    0.0000 C   0  0  0  0  0  0  0  0  0  0  0  0
    3.8296   -6.4004    0.0000 C   0  0  0  0  0  0  0  0  0  0  0  0
    4.0900   -7.8776    0.0000 C   0  0  0  0  0  0  0  0  0  0  0  0
    3.2014  -12.2474    0.0000 N   0  0  0  0  0  0  0  0  0  0  0  0
    2.9410  -13.7246    0.0000 P   0  0  0  0  0  0  0  0  0  0  0  0
    3.2014  -15.2018    0.0000 O   0  0  0  0  0  0  0  0  0  0  0  0
    4.6110  -15.7148    0.0000 C   0  0  0  0  0  0  0  0  0  0  0  0
    4.8714  -17.1920    0.0000 C   0  0  0  0  0  0  0  0  0  0  0  0
    6.2810  -17.7050    0.0000 C   0  0  0  0  0  0  0  0  0  0  0  0
    7.4300  -16.7409    0.0000 C   0  0  0  0  0  0  0  0  0  0  0  0
    8.8396  -17.2539    0.0000 C   0  0  0  0  0  0  0  0  0  0  0  0
    9.1001  -18.7311    0.0000 N   0  0  0  0  0  0  0  0  0  0  0  0
   10.5096  -19.2441    0.0000 C   0  0  0  0  0  0  0  0  0  0  0  0
   10.7701  -20.7214    0.0000 C   0  0  0  0  0  0  0  0  0  0  0  0
   12.1796  -21.2344    0.0000 C   0  0  0  0  0  0  0  0  0  0  0  0
   13.3287  -20.2702    0.0000 C   0  0  0  0  0  0  0  0  0  0  0  0
   14.7382  -20.7832    0.0000 O   0  0  0  0  0  0  0  0  0  0  0  0
   13.0682  -18.7930    0.0000 C   0  0  0  0  0  0  0  0  0  0  0  0
   11.6587  -18.2800    0.0000 C   0  0  0  0  0  0  0  0  0  0  0  0
    9.9887  -16.2897    0.0000 P   0  0  0  0  0  0  0  0  0  0  0  0
   10.7387  -17.5888    0.0000 O   0  0  0  0  0  0  0  0  0  0  0  0
    8.8396  -15.3255    0.0000 O   0  0  0  0  0  0  0  0  0  0  0  0
    9.1001  -13.8483    0.0000 C   0  0  0  0  0  0  0  0  0  0  0  0
    7.9510  -12.8841    0.0000 C   0  0  0  0  0  0  0  0  0  0  0  0
    8.2115  -11.4069    0.0000 C   0  0  0  0  0  0  0  0  0  0  0  0
    9.6210  -10.8939    0.0000 C   0  0  0  0  0  0  0  0  0  0  0  0
   10.7701  -11.8581    0.0000 C   0  0  0  0  0  0  0  0  0  0  0  0
   10.5096  -13.3353    0.0000 C   0  0  0  0  0  0  0  0  0  0  0  0
   11.6587  -14.2995    0.0000 C   0  0  0  0  0  0  0  0  0  0  0  0
   13.0682  -13.7864    0.0000 C   0  0  0  0  0  0  0  0  0  0  0  0
   14.2173  -14.7506    0.0000 C   0  0  0  0  0  0  0  0  0  0  0  0
   13.9568  -16.2278    0.0000 C   0  0  0  0  0  0  0  0  0  0  0  0
   12.5473  -16.7409    0.0000 C   0  0  0  0  0  0  0  0  0  0  0  0
   11.3982  -15.7767    0.0000 C   0  0  0  0  0  0  0  0  0  0  0  0
    7.1696  -15.2637    0.0000 C   0  0  0  0  0  0  0  0  0  0  0  0
    5.7600  -14.7506    0.0000 C   0  0  0  0  0  0  0  0  0  0  0  0
    4.4410  -13.7246    0.0000 O   0  0  0  0  0  0  0  0  0  0  0  0
    5.1910  -12.4255    0.0000 C   0  0  0  0  0  0  0  0  0  0  0  0
    4.4410  -11.1265    0.0000 C   0  0  0  0  0  0  0  0  0  0  0  0
    5.1910   -9.8275    0.0000 C   0  0  0  0  0  0  0  0  0  0  0  0
    6.6910   -9.8275    0.0000 C   0  0  0  0  0  0  0  0  0  0  0  0
    7.4410   -8.5284    0.0000 C   0  0  0  0  0  0  0  0  0  0  0  0
    6.6910   -7.2294    0.0000 N   0  0  0  0  0  0  0  0  0  0  0  0
    5.1910   -7.2294    0.0000 C   0  0  0  0  0  0  0  0  0  0  0  0
    4.4410   -5.9303    0.0000 C   0  0  0  0  0  0  0  0  0  0  0  0
    2.9410   -5.9303    0.0000 C   0  0  0  0  0  0  0  0  0  0  0  0
    2.1910   -7.2294    0.0000 C   0  0  0  0  0  0  0  0  0  0  0  0
    0.7355   -6.8664    0.0000 O   0  0  0  0  0  0  0  0  0  0  0  0
    2.9410   -8.5284    0.0000 C   0  0  0  0  0  0  0  0  0  0  0  0
    4.4410   -8.5284    0.0000 C   0  0  0  0  0  0  0  0  0  0  0  0
    8.9410   -8.5284    0.0000 P   0  0  0  0  0  0  0  0  0  0  0  0
    8.6805  -10.0056    0.0000 O   0  0  0  0  0  0  0  0  0  0  0  0
    8.6805   -7.0512    0.0000 O   0  0  0  0  0  0  0  0  0  0  0  0
    9.8296   -6.0870    0.0000 C   0  0  0  0  0  0  0  0  0  0  0  0
    9.5691   -4.6098    0.0000 C   0  0  0  0  0  0  0  0  0  0  0  0
   10.7181   -3.6456    0.0000 C   0  0  0  0  0  0  0  0  0  0  0  0
   12.1277   -4.1587    0.0000 C   0  0  0  0  0  0  0  0  0  0  0  0
   12.3882   -5.6359    0.0000 C   0  0  0  0  0  0  0  0  0  0  0  0
   11.2391   -6.6001    0.0000 C   0  0  0  0  0  0  0  0  0  0  0  0
   11.4996   -8.0773    0.0000 C   0  0  0  0  0  0  0  0  0  0  0  0
   12.9091   -8.5903    0.0000 C   0  0  0  0  0  0  0  0  0  0  0  0
   13.1696  -10.0675    0.0000 C   0  0  0  0  0  0  0  0  0  0  0  0
   12.0205  -11.0317    0.0000 C   0  0  0  0  0  0  0  0  0  0  0  0
   10.6110  -10.5187    0.0000 C   0  0  0  0  0  0  0  0  0  0  0  0
   10.3505   -9.0414    0.0000 C   0  0  0  0  0  0  0  0  0  0  0  0
    7.4410  -11.1265    0.0000 C   0  0  0  0  0  0  0  0  0  0  0  0
    6.6910  -12.4255    0.0000 C   0  0  0  0  0  0  0  0  0  0  0  0
    1.5314  -14.2376    0.0000 N   0  0  0  0  0  0  0  0  0  0  0  0
    0.3824  -13.2734    0.0000 P   0  0  0  0  0  0  0  0  0  0  0  0
   -1.0272  -12.7604    0.0000 O   0  0  0  0  0  0  0  0  0  0  0  0
   -2.1763  -13.7246    0.0000 C   0  0  0  0  0  0  0  0  0  0  0  0
   -3.5858  -13.2115    0.0000 C   0  0  0  0  0  0  0  0  0  0  0  0
   -4.7349  -14.1757    0.0000 C   0  0  0  0  0  0  0  0  0  0  0  0
   -4.4744  -15.6529    0.0000 C   0  0  0  0  0  0  0  0  0  0  0  0
   -5.6235  -16.6171    0.0000 C   0  0  0  0  0  0  0  0  0  0  0  0
   -7.0330  -16.1041    0.0000 N   0  0  0  0  0  0  0  0  0  0  0  0
   -8.1821  -17.0683    0.0000 C   0  0  0  0  0  0  0  0  0  0  0  0
   -9.5916  -16.5552    0.0000 C   0  0  0  0  0  0  0  0  0  0  0  0
  -10.7407  -17.5194    0.0000 C   0  0  0  0  0  0  0  0  0  0  0  0
  -10.4802  -18.9966    0.0000 C   0  0  0  0  0  0  0  0  0  0  0  0
  -11.6293  -19.9608    0.0000 O   0  0  0  0  0  0  0  0  0  0  0  0
   -9.0707  -19.5097    0.0000 C   0  0  0  0  0  0  0  0  0  0  0  0
   -7.9216  -18.5455    0.0000 C   0  0  0  0  0  0  0  0  0  0  0  0
   -5.3630  -18.0943    0.0000 P   0  0  0  0  0  0  0  0  0  0  0  0
   -3.9534  -17.5813    0.0000 O   0  0  0  0  0  0  0  0  0  0  0  0
   -6.8630  -18.0943    0.0000 O   0  0  0  0  0  0  0  0  0  0  0  0
   -7.6130  -19.3934    0.0000 C   0  0  0  0  0  0  0  0  0  0  0  0
   -9.1130  -19.3934    0.0000 C   0  0  0  0  0  0  0  0  0  0  0  0
   -9.8630  -20.6924    0.0000 C   0  0  0  0  0  0  0  0  0  0  0  0
   -9.1130  -21.9914    0.0000 C   0  0  0  0  0  0  0  0  0  0  0  0
   -7.6130  -21.9914    0.0000 C   0  0  0  0  0  0  0  0  0  0  0  0
   -6.8630  -20.6924    0.0000 C   0  0  0  0  0  0  0  0  0  0  0  0
   -5.3630  -20.6924    0.0000 C   0  0  0  0  0  0  0  0  0  0  0  0
   -4.6130  -21.9914    0.0000 C   0  0  0  0  0  0  0  0  0  0  0  0
   -3.1130  -21.9914    0.0000 C   0  0  0  0  0  0  0  0  0  0  0  0
   -2.3630  -20.6924    0.0000 C   0  0  0  0  0  0  0  0  0  0  0  0
   -3.1130  -19.3934    0.0000 C   0  0  0  0  0  0  0  0  0  0  0  0
   -4.6130  -19.3934    0.0000 C   0  0  0  0  0  0  0  0  0  0  0  0
   -3.0648  -16.1660    0.0000 C   0  0  0  0  0  0  0  0  0  0  0  0
   -1.9158  -15.2018    0.0000 C   0  0  0  0  0  0  0  0  0  0  0  0
   -0.3676  -14.5725    0.0000 O   0  0  0  0  0  0  0  0  0  0  0  0
   -1.8676  -14.5725    0.0000 C   0  0  0  0  0  0  0  0  0  0  0  0
   -2.6176  -13.2734    0.0000 C   0  0  0  0  0  0  0  0  0  0  0  0
   -4.1176  -13.2734    0.0000 C   0  0  0  0  0  0  0  0  0  0  0  0
   -4.8676  -14.5725    0.0000 C   0  0  0  0  0  0  0  0  0  0  0  0
   -6.3676  -14.5725    0.0000 C   0  0  0  0  0  0  0  0  0  0  0  0
   -7.1176  -13.2734    0.0000 N   0  0  0  0  0  0  0  0  0  0  0  0
   -8.6176  -13.2734    0.0000 C   0  0  0  0  0  0  0  0  0  0  0  0
   -9.3676  -11.9744    0.0000 C   0  0  0  0  0  0  0  0  0  0  0  0
  -10.8676  -11.9744    0.0000 C   0  0  0  0  0  0  0  0  0  0  0  0
  -11.6176  -13.2734    0.0000 C   0  0  0  0  0  0  0  0  0  0  0  0
  -13.1176  -13.2734    0.0000 O   0  0  0  0  0  0  0  0  0  0  0  0
  -10.8676  -14.5725    0.0000 C   0  0  0  0  0  0  0  0  0  0  0  0
  -11.6176  -15.8715    0.0000 B   0  0  0  0  0  0  0  0  0  0  0  0
  -13.1176  -15.8715    0.0000 O   0  0  0  0  0  0  0  0  0  0  0  0
  -11.5655  -17.3706    0.0000 O   0  0  0  0  0  0  0  0  0  0  0  0
   -9.3676  -14.5725    0.0000 C   0  0  0  0  0  0  0  0  0  0  0  0
   -7.1176  -15.8715    0.0000 P   0  0  0  0  0  0  0  0  0  0  0  0
   -5.8741  -16.7103    0.0000 O   0  0  0  0  0  0  0  0  0  0  0  0
   -8.2667  -14.9073    0.0000 O   0  0  0  0  0  0  0  0  0  0  0  0
   -9.6763  -15.4203    0.0000 C   0  0  0  0  0  0  0  0  0  0  0  0
  -10.8253  -14.4562    0.0000 C   0  0  0  0  0  0  0  0  0  0  0  0
  -12.2349  -14.9692    0.0000 C   0  0  0  0  0  0  0  0  0  0  0  0
  -12.4953  -16.4464    0.0000 C   0  0  0  0  0  0  0  0  0  0  0  0
  -11.3463  -17.4106    0.0000 C   0  0  0  0  0  0  0  0  0  0  0  0
   -9.9367  -16.8976    0.0000 C   0  0  0  0  0  0  0  0  0  0  0  0
   -8.7877  -17.8617    0.0000 C   0  0  0  0  0  0  0  0  0  0  0  0
   -9.0481  -19.3389    0.0000 C   0  0  0  0  0  0  0  0  0  0  0  0
   -7.8991  -20.3031    0.0000 C   0  0  0  0  0  0  0  0  0  0  0  0
   -6.4895  -19.7901    0.0000 C   0  0  0  0  0  0  0  0  0  0  0  0
   -6.2291  -18.3129    0.0000 C   0  0  0  0  0  0  0  0  0  0  0  0
   -7.3781  -17.3487    0.0000 C   0  0  0  0  0  0  0  0  0  0  0  0
   -4.1176  -15.8715    0.0000 C   0  0  0  0  0  0  0  0  0  0  0  0
   -2.6176  -15.8715    0.0000 C   0  0  0  0  0  0  0  0  0  0  0  0
    0.6428  -11.7962    0.0000 N   0  0  0  0  0  0  0  0  0  0  0  0
   -0.9476   -8.6851    0.0000 C   0  0  0  0  0  0  0  0  0  0  0  0
   -2.4476   -8.6851    0.0000 C   0  0  0  0  0  0  0  0  0  0  0  0
   -6.5967  -10.3190    0.0000 O   0  0  0  0  0  0  0  0  0  0  0  0
   -8.0062  -10.8320    0.0000 C   0  0  0  0  0  0  0  0  0  0  0  0
   -9.1553   -9.8678    0.0000 C   0  0  0  0  0  0  0  0  0  0  0  0
  -10.5648  -10.3809    0.0000 C   0  0  0  0  0  0  0  0  0  0  0  0
  -10.8253  -11.8581    0.0000 C   0  0  0  0  0  0  0  0  0  0  0  0
   -9.6763  -12.8223    0.0000 C   0  0  0  0  0  0  0  0  0  0  0  0
   -8.2667  -12.3092    0.0000 C   0  0  0  0  0  0  0  0  0  0  0  0
   -7.1176  -13.2734    0.0000 C   0  0  0  0  0  0  0  0  0  0  0  0
   -7.3781  -14.7506    0.0000 C   0  0  0  0  0  0  0  0  0  0  0  0
   -6.2291  -15.7148    0.0000 C   0  0  0  0  0  0  0  0  0  0  0  0
   -4.8195  -15.2018    0.0000 C   0  0  0  0  0  0  0  0  0  0  0  0
   -4.5590  -13.7246    0.0000 C   0  0  0  0  0  0  0  0  0  0  0  0
   -5.7081  -12.7604    0.0000 C   0  0  0  0  0  0  0  0  0  0  0  0
  1  2  2  0
  2  3  1  0
  3  4  1  0
  4  5  1  0
  5  6  2  0
  6  7  1  0
  7  8  2  0
  8  9  1  0
  8 10  1  0
 10 11  2  0
  3 12  1  0
 12 13  2  0
 13 14  1  0
 14 15  2  0
 15 16  1  0
 16 17  1  0
 17 18  1  0
 18 19  1  0
 19 20  2  0
 20 21  1  0
 21 22  2  0
 22 23  1  0
 23 24  1  0
 24 25  1  0
 25 26  2  0
 26 27  1  0
 27 28  2  0
 28 29  1  0
 28 30  1  0
 30 31  2  0
 23 32  1  0
 32 33  2  0
 32 34  1  0
 34 35  1  0
 35 36  2  0
 36 37  1  0
 37 38  2  0
 38 39  1  0
 39 40  2  0
 40 41  1  0
 41 42  2  0
 42 43  1  0
 43 44  2  0
 44 45  1  0
 45 46  2  0
 22 47  1  0
 47 48  2  0
 17 49  2  0
 49 50  1  0
 50 51  1  0
 51 52  1  0
 52 53  2  0
 53 54  1  0
 54 55  2  0
 55 56  1  0
 56 57  1  0
 57 58  1  0
 58 59  2  0
 59 60  1  0
 60 61  2  0
 61 62  1  0
 61 63  1  0
 63 64  2  0
 56 65  1  0
 65 66  2  0
 65 67  1  0
 67 68  1  0
 68 69  2  0
 69 70  1  0
 70 71  2  0
 71 72  1  0
 72 73  2  0
 73 74  1  0
 74 75  2  0
 75 76  1  0
 76 77  2  0
 77 78  1  0
 78 79  2  0
 55 80  1  0
 80 81  2  0
 50 82  1  0
 82 83  1  0
 83 84  2  0
 84 85  1  0
 85 86  2  0
 86 87  1  0
 87 88  1  0
 88 89  1  0
 89 90  2  0
 90 91  1  0
 91 92  2  0
 92 93  1  0
 92 94  1  0
 94 95  2  0
 87 96  1  0
 96 97  2  0
 96 98  1  0
 98 99  1  0
 99100  2  0
100101  1  0
101102  2  0
102103  1  0
103104  2  0
104105  1  0
105106  2  0
106107  1  0
107108  2  0
108109  1  0
109110  2  0
 86111  1  0
111112  2  0
 50113  2  0
113114  1  0
114115  1  0
115116  1  0
116117  2  0
117118  1  0
118119  2  0
119120  1  0
120121  1  0
121122  1  0
122123  2  0
123124  1  0
124125  2  0
125126  1  0
125127  1  0
127128  2  0
120129  1  0
129130  2  0
129131  1  0
131132  1  0
132133  2  0
133134  1  0
134135  2  0
135136  1  0
136137  2  0
137138  1  0
138139  2  0
139140  1  0
140141  2  0
141142  1  0
142143  2  0
119144  1  0
144145  2  0
114146  1  0
146147  1  0
147148  2  0
148149  1  0
149150  2  0
150151  1  0
151152  1  0
152153  1  0
153154  2  0
154155  1  0
155156  2  0
156157  1  0
156158  1  0
158159  1  0
159160  1  0
159161  1  0
158162  2  0
151163  1  0
163164  2  0
163165  1  0
165166  1  0
166167  2  0
167168  1  0
168169  2  0
169170  1  0
170171  2  0
171172  1  0
172173  2  0
173174  1  0
174175  2  0
175176  1  0
176177  2  0
150178  1  0
178179  2  0
114180  2  0
 15181  1  0
181182  2  0
  2183  1  0
183184  1  0
184185  2  0
185186  1  0
186187  2  0
187188  1  0
188189  2  0
189190  1  0
190191  2  0
191192  1  0
192193  2  0
193194  1  0
194195  2  0
195  2  1  0
 11  5  1  0
182 12  1  0
189184  1  0
195190  1  0
180 17  1  0
 48 19  1  0
 81 52  1  0
112 83  1  0
145116  1  0
179147  1  0
 31 25  1  0
 46 32  1  0
 64 58  1  0
 79 65  1  0
 95 89  1  0
110 96  1  0
128122  1  0
143129  1  0
162153  1  0
177163  1  0
 40 35  1  0
 46 41  1  0
 73 68  1  0
 79 74  1  0
104 99  1  0
110105  1  0
137132  1  0
143138  1  0
171166  1  0
177172  1  0
M  END
>  <Candidate_ID>  (29) 
CAND_R2_029

>  <Candidate_Name>  (29) 
CTP-DOPO-boronic-acid

>  <Parent_Seed_ID>  (29) 
TRAIN_041

>  <Parent_Name>  (29) 
CTP-DOPO

>  <Transformation_Code>  (29) 
boronic_acid

>  <Design_Family>  (29) 
P-N-B

>  <Preparation_Type>  (29) 
Additive

>  <Synthesis_Level>  (29) 
C

>  <Parent_Tanimoto_r3>  (29) 
0.7978723404255319

>  <Max_Train_Tanimoto_r3>  (29) 
0.7978723404255319

>  <Risk_Flags>  (29) 
high molecular weight; high DOPO count; exploratory only; excluded from formal screening

$$$$
CAND_R2_030 | CTP-DOPO-glycidyloxy
     RDKit          2D

197228  0  0  0  0  0  0  0  0999 V2000
   -4.0381  -11.7962    0.0000 O   0  0  0  0  0  0  0  0  0  0  0  0
   -5.4476  -11.2832    0.0000 P   0  0  0  0  0  0  0  0  0  0  0  0
   -4.6976   -9.9841    0.0000 C   0  0  0  0  0  0  0  0  0  0  0  0
   -5.4476   -8.6851    0.0000 N   0  0  0  0  0  0  0  0  0  0  0  0
   -6.9476   -8.6851    0.0000 C   0  0  0  0  0  0  0  0  0  0  0  0
   -7.6976   -7.3861    0.0000 C   0  0  0  0  0  0  0  0  0  0  0  0
   -9.1976   -7.3861    0.0000 C   0  0  0  0  0  0  0  0  0  0  0  0
   -9.9476   -8.6851    0.0000 C   0  0  0  0  0  0  0  0  0  0  0  0
  -11.4476   -8.6851    0.0000 O   0  0  0  0  0  0  0  0  0  0  0  0
   -9.1976   -9.9841    0.0000 C   0  0  0  0  0  0  0  0  0  0  0  0
   -7.6976   -9.9841    0.0000 C   0  0  0  0  0  0  0  0  0  0  0  0
   -3.1976   -9.9841    0.0000 C   0  0  0  0  0  0  0  0  0  0  0  0
   -2.4476  -11.2832    0.0000 C   0  0  0  0  0  0  0  0  0  0  0  0
   -0.9476  -11.2832    0.0000 C   0  0  0  0  0  0  0  0  0  0  0  0
   -0.1976   -9.9841    0.0000 C   0  0  0  0  0  0  0  0  0  0  0  0
    1.3024   -9.9841    0.0000 O   0  0  0  0  0  0  0  0  0  0  0  0
    2.0524  -11.2832    0.0000 P   0  0  0  0  0  0  0  0  0  0  0  0
    3.2014  -10.3190    0.0000 O   0  0  0  0  0  0  0  0  0  0  0  0
    2.9410   -8.8418    0.0000 C   0  0  0  0  0  0  0  0  0  0  0  0
    1.5314   -8.3287    0.0000 C   0  0  0  0  0  0  0  0  0  0  0  0
    1.2709   -6.8515    0.0000 C   0  0  0  0  0  0  0  0  0  0  0  0
    2.4200   -5.8874    0.0000 C   0  0  0  0  0  0  0  0  0  0  0  0
    2.1595   -4.4101    0.0000 C   0  0  0  0  0  0  0  0  0  0  0  0
    0.7500   -3.8971    0.0000 N   0  0  0  0  0  0  0  0  0  0  0  0
   -0.3991   -4.8613    0.0000 C   0  0  0  0  0  0  0  0  0  0  0  0
   -0.1386   -6.3385    0.0000 C   0  0  0  0  0  0  0  0  0  0  0  0
   -1.2877   -7.3027    0.0000 C   0  0  0  0  0  0  0  0  0  0  0  0
   -2.6972   -6.7897    0.0000 C   0  0  0  0  0  0  0  0  0  0  0  0
   -3.8463   -7.7538    0.0000 O   0  0  0  0  0  0  0  0  0  0  0  0
   -2.9577   -5.3124    0.0000 C   0  0  0  0  0  0  0  0  0  0  0  0
   -1.8086   -4.3483    0.0000 C   0  0  0  0  0  0  0  0  0  0  0  0
    3.3086   -3.4460    0.0000 P   0  0  0  0  0  0  0  0  0  0  0  0
    4.0586   -4.7450    0.0000 O   0  0  0  0  0  0  0  0  0  0  0  0
    2.1595   -2.4818    0.0000 O   0  0  0  0  0  0  0  0  0  0  0  0
    2.4200   -1.0046    0.0000 C   0  0  0  0  0  0  0  0  0  0  0  0
    1.2709   -0.0404    0.0000 C   0  0  0  0  0  0  0  0  0  0  0  0
    1.5314    1.4368    0.0000 C   0  0  0  0  0  0  0  0  0  0  0  0
    2.9410    1.9499    0.0000 C   0  0  0  0  0  0  0  0  0  0  0  0
    4.0900    0.9857    0.0000 C   0  0  0  0  0  0  0  0  0  0  0  0
    3.8296   -0.4915    0.0000 C   0  0  0  0  0  0  0  0  0  0  0  0
    4.9786   -1.4557    0.0000 C   0  0  0  0  0  0  0  0  0  0  0  0
    6.3882   -0.9427    0.0000 C   0  0  0  0  0  0  0  0  0  0  0  0
    7.5372   -1.9069    0.0000 C   0  0  0  0  0  0  0  0  0  0  0  0
    7.2768   -3.3841    0.0000 C   0  0  0  0  0  0  0  0  0  0  0  0
    5.8672   -3.8971    0.0000 C   0  0  0  0  0  0  0  0  0  0  0  0
    4.7181   -2.9329    0.0000 C   0  0  0  0  0  0  0  0  0  0  0  0
    3.8296   -6.4004    0.0000 C   0  0  0  0  0  0  0  0  0  0  0  0
    4.0900   -7.8776    0.0000 C   0  0  0  0  0  0  0  0  0  0  0  0
    3.2014  -12.2474    0.0000 N   0  0  0  0  0  0  0  0  0  0  0  0
    2.9410  -13.7246    0.0000 P   0  0  0  0  0  0  0  0  0  0  0  0
    3.2014  -15.2018    0.0000 O   0  0  0  0  0  0  0  0  0  0  0  0
    4.6110  -15.7148    0.0000 C   0  0  0  0  0  0  0  0  0  0  0  0
    4.8714  -17.1920    0.0000 C   0  0  0  0  0  0  0  0  0  0  0  0
    6.2810  -17.7050    0.0000 C   0  0  0  0  0  0  0  0  0  0  0  0
    7.4300  -16.7409    0.0000 C   0  0  0  0  0  0  0  0  0  0  0  0
    8.8396  -17.2539    0.0000 C   0  0  0  0  0  0  0  0  0  0  0  0
    9.1001  -18.7311    0.0000 N   0  0  0  0  0  0  0  0  0  0  0  0
   10.5096  -19.2441    0.0000 C   0  0  0  0  0  0  0  0  0  0  0  0
   10.7701  -20.7214    0.0000 C   0  0  0  0  0  0  0  0  0  0  0  0
   12.1796  -21.2344    0.0000 C   0  0  0  0  0  0  0  0  0  0  0  0
   13.3287  -20.2702    0.0000 C   0  0  0  0  0  0  0  0  0  0  0  0
   14.7382  -20.7832    0.0000 O   0  0  0  0  0  0  0  0  0  0  0  0
   13.0682  -18.7930    0.0000 C   0  0  0  0  0  0  0  0  0  0  0  0
   11.6587  -18.2800    0.0000 C   0  0  0  0  0  0  0  0  0  0  0  0
    9.9887  -16.2897    0.0000 P   0  0  0  0  0  0  0  0  0  0  0  0
   10.7387  -17.5888    0.0000 O   0  0  0  0  0  0  0  0  0  0  0  0
    8.8396  -15.3255    0.0000 O   0  0  0  0  0  0  0  0  0  0  0  0
    9.1001  -13.8483    0.0000 C   0  0  0  0  0  0  0  0  0  0  0  0
    7.9510  -12.8841    0.0000 C   0  0  0  0  0  0  0  0  0  0  0  0
    8.2115  -11.4069    0.0000 C   0  0  0  0  0  0  0  0  0  0  0  0
    9.6210  -10.8939    0.0000 C   0  0  0  0  0  0  0  0  0  0  0  0
   10.7701  -11.8581    0.0000 C   0  0  0  0  0  0  0  0  0  0  0  0
   10.5096  -13.3353    0.0000 C   0  0  0  0  0  0  0  0  0  0  0  0
   11.6587  -14.2995    0.0000 C   0  0  0  0  0  0  0  0  0  0  0  0
   13.0682  -13.7864    0.0000 C   0  0  0  0  0  0  0  0  0  0  0  0
   14.2173  -14.7506    0.0000 C   0  0  0  0  0  0  0  0  0  0  0  0
   13.9568  -16.2278    0.0000 C   0  0  0  0  0  0  0  0  0  0  0  0
   12.5473  -16.7409    0.0000 C   0  0  0  0  0  0  0  0  0  0  0  0
   11.3982  -15.7767    0.0000 C   0  0  0  0  0  0  0  0  0  0  0  0
    7.1696  -15.2637    0.0000 C   0  0  0  0  0  0  0  0  0  0  0  0
    5.7600  -14.7506    0.0000 C   0  0  0  0  0  0  0  0  0  0  0  0
    4.4410  -13.7246    0.0000 O   0  0  0  0  0  0  0  0  0  0  0  0
    5.1910  -12.4255    0.0000 C   0  0  0  0  0  0  0  0  0  0  0  0
    4.4410  -11.1265    0.0000 C   0  0  0  0  0  0  0  0  0  0  0  0
    5.1910   -9.8275    0.0000 C   0  0  0  0  0  0  0  0  0  0  0  0
    6.6910   -9.8275    0.0000 C   0  0  0  0  0  0  0  0  0  0  0  0
    7.4410   -8.5284    0.0000 C   0  0  0  0  0  0  0  0  0  0  0  0
    6.6910   -7.2294    0.0000 N   0  0  0  0  0  0  0  0  0  0  0  0
    5.1910   -7.2294    0.0000 C   0  0  0  0  0  0  0  0  0  0  0  0
    4.4410   -5.9303    0.0000 C   0  0  0  0  0  0  0  0  0  0  0  0
    2.9410   -5.9303    0.0000 C   0  0  0  0  0  0  0  0  0  0  0  0
    2.1910   -7.2294    0.0000 C   0  0  0  0  0  0  0  0  0  0  0  0
    0.7355   -6.8664    0.0000 O   0  0  0  0  0  0  0  0  0  0  0  0
    2.9410   -8.5284    0.0000 C   0  0  0  0  0  0  0  0  0  0  0  0
    4.4410   -8.5284    0.0000 C   0  0  0  0  0  0  0  0  0  0  0  0
    8.9410   -8.5284    0.0000 P   0  0  0  0  0  0  0  0  0  0  0  0
    8.6805  -10.0056    0.0000 O   0  0  0  0  0  0  0  0  0  0  0  0
    8.6805   -7.0512    0.0000 O   0  0  0  0  0  0  0  0  0  0  0  0
    9.8296   -6.0870    0.0000 C   0  0  0  0  0  0  0  0  0  0  0  0
    9.5691   -4.6098    0.0000 C   0  0  0  0  0  0  0  0  0  0  0  0
   10.7181   -3.6456    0.0000 C   0  0  0  0  0  0  0  0  0  0  0  0
   12.1277   -4.1587    0.0000 C   0  0  0  0  0  0  0  0  0  0  0  0
   12.3882   -5.6359    0.0000 C   0  0  0  0  0  0  0  0  0  0  0  0
   11.2391   -6.6001    0.0000 C   0  0  0  0  0  0  0  0  0  0  0  0
   11.4996   -8.0773    0.0000 C   0  0  0  0  0  0  0  0  0  0  0  0
   12.9091   -8.5903    0.0000 C   0  0  0  0  0  0  0  0  0  0  0  0
   13.1696  -10.0675    0.0000 C   0  0  0  0  0  0  0  0  0  0  0  0
   12.0205  -11.0317    0.0000 C   0  0  0  0  0  0  0  0  0  0  0  0
   10.6110  -10.5187    0.0000 C   0  0  0  0  0  0  0  0  0  0  0  0
   10.3505   -9.0414    0.0000 C   0  0  0  0  0  0  0  0  0  0  0  0
    7.4410  -11.1265    0.0000 C   0  0  0  0  0  0  0  0  0  0  0  0
    6.6910  -12.4255    0.0000 C   0  0  0  0  0  0  0  0  0  0  0  0
    1.5314  -14.2376    0.0000 N   0  0  0  0  0  0  0  0  0  0  0  0
    0.3824  -13.2734    0.0000 P   0  0  0  0  0  0  0  0  0  0  0  0
   -1.0272  -12.7604    0.0000 O   0  0  0  0  0  0  0  0  0  0  0  0
   -2.1763  -13.7246    0.0000 C   0  0  0  0  0  0  0  0  0  0  0  0
   -3.5858  -13.2115    0.0000 C   0  0  0  0  0  0  0  0  0  0  0  0
   -4.7349  -14.1757    0.0000 C   0  0  0  0  0  0  0  0  0  0  0  0
   -4.4744  -15.6529    0.0000 C   0  0  0  0  0  0  0  0  0  0  0  0
   -5.6235  -16.6171    0.0000 C   0  0  0  0  0  0  0  0  0  0  0  0
   -7.0330  -16.1041    0.0000 N   0  0  0  0  0  0  0  0  0  0  0  0
   -8.1821  -17.0683    0.0000 C   0  0  0  0  0  0  0  0  0  0  0  0
   -9.5916  -16.5552    0.0000 C   0  0  0  0  0  0  0  0  0  0  0  0
  -10.7407  -17.5194    0.0000 C   0  0  0  0  0  0  0  0  0  0  0  0
  -10.4802  -18.9966    0.0000 C   0  0  0  0  0  0  0  0  0  0  0  0
  -11.6293  -19.9608    0.0000 O   0  0  0  0  0  0  0  0  0  0  0  0
   -9.0707  -19.5097    0.0000 C   0  0  0  0  0  0  0  0  0  0  0  0
   -7.9216  -18.5455    0.0000 C   0  0  0  0  0  0  0  0  0  0  0  0
   -5.3630  -18.0943    0.0000 P   0  0  0  0  0  0  0  0  0  0  0  0
   -3.9534  -17.5813    0.0000 O   0  0  0  0  0  0  0  0  0  0  0  0
   -6.8630  -18.0943    0.0000 O   0  0  0  0  0  0  0  0  0  0  0  0
   -7.6130  -19.3934    0.0000 C   0  0  0  0  0  0  0  0  0  0  0  0
   -9.1130  -19.3934    0.0000 C   0  0  0  0  0  0  0  0  0  0  0  0
   -9.8630  -20.6924    0.0000 C   0  0  0  0  0  0  0  0  0  0  0  0
   -9.1130  -21.9914    0.0000 C   0  0  0  0  0  0  0  0  0  0  0  0
   -7.6130  -21.9914    0.0000 C   0  0  0  0  0  0  0  0  0  0  0  0
   -6.8630  -20.6924    0.0000 C   0  0  0  0  0  0  0  0  0  0  0  0
   -5.3630  -20.6924    0.0000 C   0  0  0  0  0  0  0  0  0  0  0  0
   -4.6130  -21.9914    0.0000 C   0  0  0  0  0  0  0  0  0  0  0  0
   -3.1130  -21.9914    0.0000 C   0  0  0  0  0  0  0  0  0  0  0  0
   -2.3630  -20.6924    0.0000 C   0  0  0  0  0  0  0  0  0  0  0  0
   -3.1130  -19.3934    0.0000 C   0  0  0  0  0  0  0  0  0  0  0  0
   -4.6130  -19.3934    0.0000 C   0  0  0  0  0  0  0  0  0  0  0  0
   -3.0648  -16.1660    0.0000 C   0  0  0  0  0  0  0  0  0  0  0  0
   -1.9158  -15.2018    0.0000 C   0  0  0  0  0  0  0  0  0  0  0  0
   -0.3676  -14.5725    0.0000 O   0  0  0  0  0  0  0  0  0  0  0  0
   -1.8676  -14.5725    0.0000 C   0  0  0  0  0  0  0  0  0  0  0  0
   -2.6176  -13.2734    0.0000 C   0  0  0  0  0  0  0  0  0  0  0  0
   -4.1176  -13.2734    0.0000 C   0  0  0  0  0  0  0  0  0  0  0  0
   -4.8676  -14.5725    0.0000 C   0  0  0  0  0  0  0  0  0  0  0  0
   -6.3676  -14.5725    0.0000 C   0  0  0  0  0  0  0  0  0  0  0  0
   -7.1176  -13.2734    0.0000 N   0  0  0  0  0  0  0  0  0  0  0  0
   -8.6176  -13.2734    0.0000 C   0  0  0  0  0  0  0  0  0  0  0  0
   -9.3676  -11.9744    0.0000 C   0  0  0  0  0  0  0  0  0  0  0  0
  -10.8676  -11.9744    0.0000 C   0  0  0  0  0  0  0  0  0  0  0  0
  -11.6176  -13.2734    0.0000 C   0  0  0  0  0  0  0  0  0  0  0  0
  -13.1176  -13.2734    0.0000 O   0  0  0  0  0  0  0  0  0  0  0  0
  -10.8676  -14.5725    0.0000 C   0  0  0  0  0  0  0  0  0  0  0  0
  -11.6176  -15.8715    0.0000 O   0  0  0  0  0  0  0  0  0  0  0  0
  -13.1176  -15.8715    0.0000 C   0  0  0  0  0  0  0  0  0  0  0  0
  -13.8676  -17.1705    0.0000 C   0  0  0  0  0  0  0  0  0  0  0  0
  -13.8676  -18.6705    0.0000 C   0  0  0  0  0  0  0  0  0  0  0  0
  -15.1667  -17.9205    0.0000 O   0  0  0  0  0  0  0  0  0  0  0  0
   -9.3676  -14.5725    0.0000 C   0  0  0  0  0  0  0  0  0  0  0  0
   -7.1176  -15.8715    0.0000 P   0  0  0  0  0  0  0  0  0  0  0  0
   -5.8741  -16.7103    0.0000 O   0  0  0  0  0  0  0  0  0  0  0  0
   -8.2667  -14.9073    0.0000 O   0  0  0  0  0  0  0  0  0  0  0  0
   -9.6763  -15.4203    0.0000 C   0  0  0  0  0  0  0  0  0  0  0  0
  -10.8253  -14.4562    0.0000 C   0  0  0  0  0  0  0  0  0  0  0  0
  -12.2349  -14.9692    0.0000 C   0  0  0  0  0  0  0  0  0  0  0  0
  -12.4953  -16.4464    0.0000 C   0  0  0  0  0  0  0  0  0  0  0  0
  -11.3463  -17.4106    0.0000 C   0  0  0  0  0  0  0  0  0  0  0  0
   -9.9367  -16.8976    0.0000 C   0  0  0  0  0  0  0  0  0  0  0  0
   -8.7877  -17.8617    0.0000 C   0  0  0  0  0  0  0  0  0  0  0  0
   -9.0481  -19.3389    0.0000 C   0  0  0  0  0  0  0  0  0  0  0  0
   -7.8991  -20.3031    0.0000 C   0  0  0  0  0  0  0  0  0  0  0  0
   -6.4895  -19.7901    0.0000 C   0  0  0  0  0  0  0  0  0  0  0  0
   -6.2291  -18.3129    0.0000 C   0  0  0  0  0  0  0  0  0  0  0  0
   -7.3781  -17.3487    0.0000 C   0  0  0  0  0  0  0  0  0  0  0  0
   -4.1176  -15.8715    0.0000 C   0  0  0  0  0  0  0  0  0  0  0  0
   -2.6176  -15.8715    0.0000 C   0  0  0  0  0  0  0  0  0  0  0  0
    0.6428  -11.7962    0.0000 N   0  0  0  0  0  0  0  0  0  0  0  0
   -0.9476   -8.6851    0.0000 C   0  0  0  0  0  0  0  0  0  0  0  0
   -2.4476   -8.6851    0.0000 C   0  0  0  0  0  0  0  0  0  0  0  0
   -6.5967  -10.3190    0.0000 O   0  0  0  0  0  0  0  0  0  0  0  0
   -8.0062  -10.8320    0.0000 C   0  0  0  0  0  0  0  0  0  0  0  0
   -9.1553   -9.8678    0.0000 C   0  0  0  0  0  0  0  0  0  0  0  0
  -10.5648  -10.3809    0.0000 C   0  0  0  0  0  0  0  0  0  0  0  0
  -10.8253  -11.8581    0.0000 C   0  0  0  0  0  0  0  0  0  0  0  0
   -9.6763  -12.8223    0.0000 C   0  0  0  0  0  0  0  0  0  0  0  0
   -8.2667  -12.3092    0.0000 C   0  0  0  0  0  0  0  0  0  0  0  0
   -7.1176  -13.2734    0.0000 C   0  0  0  0  0  0  0  0  0  0  0  0
   -7.3781  -14.7506    0.0000 C   0  0  0  0  0  0  0  0  0  0  0  0
   -6.2291  -15.7148    0.0000 C   0  0  0  0  0  0  0  0  0  0  0  0
   -4.8195  -15.2018    0.0000 C   0  0  0  0  0  0  0  0  0  0  0  0
   -4.5590  -13.7246    0.0000 C   0  0  0  0  0  0  0  0  0  0  0  0
   -5.7081  -12.7604    0.0000 C   0  0  0  0  0  0  0  0  0  0  0  0
  1  2  2  0
  2  3  1  0
  3  4  1  0
  4  5  1  0
  5  6  2  0
  6  7  1  0
  7  8  2  0
  8  9  1  0
  8 10  1  0
 10 11  2  0
  3 12  1  0
 12 13  2  0
 13 14  1  0
 14 15  2  0
 15 16  1  0
 16 17  1  0
 17 18  1  0
 18 19  1  0
 19 20  2  0
 20 21  1  0
 21 22  2  0
 22 23  1  0
 23 24  1  0
 24 25  1  0
 25 26  2  0
 26 27  1  0
 27 28  2  0
 28 29  1  0
 28 30  1  0
 30 31  2  0
 23 32  1  0
 32 33  2  0
 32 34  1  0
 34 35  1  0
 35 36  2  0
 36 37  1  0
 37 38  2  0
 38 39  1  0
 39 40  2  0
 40 41  1  0
 41 42  2  0
 42 43  1  0
 43 44  2  0
 44 45  1  0
 45 46  2  0
 22 47  1  0
 47 48  2  0
 17 49  2  0
 49 50  1  0
 50 51  1  0
 51 52  1  0
 52 53  2  0
 53 54  1  0
 54 55  2  0
 55 56  1  0
 56 57  1  0
 57 58  1  0
 58 59  2  0
 59 60  1  0
 60 61  2  0
 61 62  1  0
 61 63  1  0
 63 64  2  0
 56 65  1  0
 65 66  2  0
 65 67  1  0
 67 68  1  0
 68 69  2  0
 69 70  1  0
 70 71  2  0
 71 72  1  0
 72 73  2  0
 73 74  1  0
 74 75  2  0
 75 76  1  0
 76 77  2  0
 77 78  1  0
 78 79  2  0
 55 80  1  0
 80 81  2  0
 50 82  1  0
 82 83  1  0
 83 84  2  0
 84 85  1  0
 85 86  2  0
 86 87  1  0
 87 88  1  0
 88 89  1  0
 89 90  2  0
 90 91  1  0
 91 92  2  0
 92 93  1  0
 92 94  1  0
 94 95  2  0
 87 96  1  0
 96 97  2  0
 96 98  1  0
 98 99  1  0
 99100  2  0
100101  1  0
101102  2  0
102103  1  0
103104  2  0
104105  1  0
105106  2  0
106107  1  0
107108  2  0
108109  1  0
109110  2  0
 86111  1  0
111112  2  0
 50113  2  0
113114  1  0
114115  1  0
115116  1  0
116117  2  0
117118  1  0
118119  2  0
119120  1  0
120121  1  0
121122  1  0
122123  2  0
123124  1  0
124125  2  0
125126  1  0
125127  1  0
127128  2  0
120129  1  0
129130  2  0
129131  1  0
131132  1  0
132133  2  0
133134  1  0
134135  2  0
135136  1  0
136137  2  0
137138  1  0
138139  2  0
139140  1  0
140141  2  0
141142  1  0
142143  2  0
119144  1  0
144145  2  0
114146  1  0
146147  1  0
147148  2  0
148149  1  0
149150  2  0
150151  1  0
151152  1  0
152153  1  0
153154  2  0
154155  1  0
155156  2  0
156157  1  0
156158  1  0
158159  1  0
159160  1  0
160161  1  0
161162  1  0
162163  1  0
158164  2  0
151165  1  0
165166  2  0
165167  1  0
167168  1  0
168169  2  0
169170  1  0
170171  2  0
171172  1  0
172173  2  0
173174  1  0
174175  2  0
175176  1  0
176177  2  0
177178  1  0
178179  2  0
150180  1  0
180181  2  0
114182  2  0
 15183  1  0
183184  2  0
  2185  1  0
185186  1  0
186187  2  0
187188  1  0
188189  2  0
189190  1  0
190191  2  0
191192  1  0
192193  2  0
193194  1  0
194195  2  0
195196  1  0
196197  2  0
197  2  1  0
 11  5  1  0
184 12  1  0
191186  1  0
197192  1  0
182 17  1  0
 48 19  1  0
 81 52  1  0
112 83  1  0
145116  1  0
181147  1  0
 31 25  1  0
 46 32  1  0
 64 58  1  0
 79 65  1  0
 95 89  1  0
110 96  1  0
128122  1  0
143129  1  0
164153  1  0
179165  1  0
 40 35  1  0
 46 41  1  0
 73 68  1  0
 79 74  1  0
104 99  1  0
110105  1  0
137132  1  0
143138  1  0
163161  1  0
173168  1  0
179174  1  0
M  END
>  <Candidate_ID>  (30) 
CAND_R2_030

>  <Candidate_Name>  (30) 
CTP-DOPO-glycidyloxy

>  <Parent_Seed_ID>  (30) 
TRAIN_041

>  <Parent_Name>  (30) 
CTP-DOPO

>  <Transformation_Code>  (30) 
glycidyloxy

>  <Design_Family>  (30) 
P-N

>  <Preparation_Type>  (30) 
Co-curing

>  <Synthesis_Level>  (30) 
C

>  <Parent_Tanimoto_r3>  (30) 
0.7142857142857143

>  <Max_Train_Tanimoto_r3>  (30) 
0.7142857142857143

>  <Risk_Flags>  (30) 
high molecular weight; high DOPO count; exploratory only; excluded from formal screening

$$$$
CAND_R2_031 | CTP-DOPO-OH-glycidyl-all
     RDKit          2D

216252  0  0  0  0  0  0  0  0999 V2000
   -4.0381  -11.7962    0.0000 O   0  0  0  0  0  0  0  0  0  0  0  0
   -5.4476  -11.2832    0.0000 P   0  0  0  0  0  0  0  0  0  0  0  0
   -4.6976   -9.9841    0.0000 C   0  0  0  0  0  0  0  0  0  0  0  0
   -5.4476   -8.6851    0.0000 N   0  0  0  0  0  0  0  0  0  0  0  0
   -6.9476   -8.6851    0.0000 C   0  0  0  0  0  0  0  0  0  0  0  0
   -7.6976   -7.3861    0.0000 C   0  0  0  0  0  0  0  0  0  0  0  0
   -9.1976   -7.3861    0.0000 C   0  0  0  0  0  0  0  0  0  0  0  0
   -9.9476   -8.6851    0.0000 C   0  0  0  0  0  0  0  0  0  0  0  0
  -11.4476   -8.6851    0.0000 O   0  0  0  0  0  0  0  0  0  0  0  0
  -12.1976   -7.3861    0.0000 C   0  0  0  0  0  0  0  0  0  0  0  0
  -13.6976   -7.3861    0.0000 C   0  0  0  0  0  0  0  0  0  0  0  0
  -14.9967   -8.1361    0.0000 C   0  0  0  0  0  0  0  0  0  0  0  0
  -14.9967   -6.6361    0.0000 O   0  0  0  0  0  0  0  0  0  0  0  0
   -9.1976   -9.9841    0.0000 C   0  0  0  0  0  0  0  0  0  0  0  0
   -7.6976   -9.9841    0.0000 C   0  0  0  0  0  0  0  0  0  0  0  0
   -3.1976   -9.9841    0.0000 C   0  0  0  0  0  0  0  0  0  0  0  0
   -2.4476  -11.2832    0.0000 C   0  0  0  0  0  0  0  0  0  0  0  0
   -0.9476  -11.2832    0.0000 C   0  0  0  0  0  0  0  0  0  0  0  0
   -0.1976   -9.9841    0.0000 C   0  0  0  0  0  0  0  0  0  0  0  0
    1.3024   -9.9841    0.0000 O   0  0  0  0  0  0  0  0  0  0  0  0
    2.0524  -11.2832    0.0000 P   0  0  0  0  0  0  0  0  0  0  0  0
    3.2014  -10.3190    0.0000 O   0  0  0  0  0  0  0  0  0  0  0  0
    2.9410   -8.8418    0.0000 C   0  0  0  0  0  0  0  0  0  0  0  0
    1.5314   -8.3287    0.0000 C   0  0  0  0  0  0  0  0  0  0  0  0
    1.2709   -6.8515    0.0000 C   0  0  0  0  0  0  0  0  0  0  0  0
    2.4200   -5.8874    0.0000 C   0  0  0  0  0  0  0  0  0  0  0  0
    2.1595   -4.4101    0.0000 C   0  0  0  0  0  0  0  0  0  0  0  0
    0.7500   -3.8971    0.0000 N   0  0  0  0  0  0  0  0  0  0  0  0
   -0.3991   -4.8613    0.0000 C   0  0  0  0  0  0  0  0  0  0  0  0
   -0.1386   -6.3385    0.0000 C   0  0  0  0  0  0  0  0  0  0  0  0
   -1.2877   -7.3027    0.0000 C   0  0  0  0  0  0  0  0  0  0  0  0
   -2.6972   -6.7897    0.0000 C   0  0  0  0  0  0  0  0  0  0  0  0
   -3.8463   -7.7538    0.0000 O   0  0  0  0  0  0  0  0  0  0  0  0
   -5.2558   -7.2408    0.0000 C   0  0  0  0  0  0  0  0  0  0  0  0
   -5.5163   -5.7636    0.0000 C   0  0  0  0  0  0  0  0  0  0  0  0
   -5.0032   -4.3541    0.0000 C   0  0  0  0  0  0  0  0  0  0  0  0
   -6.4805   -4.6145    0.0000 O   0  0  0  0  0  0  0  0  0  0  0  0
   -2.9577   -5.3124    0.0000 C   0  0  0  0  0  0  0  0  0  0  0  0
   -1.8086   -4.3483    0.0000 C   0  0  0  0  0  0  0  0  0  0  0  0
    3.3086   -3.4460    0.0000 P   0  0  0  0  0  0  0  0  0  0  0  0
    4.0586   -4.7450    0.0000 O   0  0  0  0  0  0  0  0  0  0  0  0
    2.1595   -2.4818    0.0000 O   0  0  0  0  0  0  0  0  0  0  0  0
    2.4200   -1.0046    0.0000 C   0  0  0  0  0  0  0  0  0  0  0  0
    1.2709   -0.0404    0.0000 C   0  0  0  0  0  0  0  0  0  0  0  0
    1.5314    1.4368    0.0000 C   0  0  0  0  0  0  0  0  0  0  0  0
    2.9410    1.9499    0.0000 C   0  0  0  0  0  0  0  0  0  0  0  0
    4.0900    0.9857    0.0000 C   0  0  0  0  0  0  0  0  0  0  0  0
    3.8296   -0.4915    0.0000 C   0  0  0  0  0  0  0  0  0  0  0  0
    4.9786   -1.4557    0.0000 C   0  0  0  0  0  0  0  0  0  0  0  0
    6.3882   -0.9427    0.0000 C   0  0  0  0  0  0  0  0  0  0  0  0
    7.5372   -1.9069    0.0000 C   0  0  0  0  0  0  0  0  0  0  0  0
    7.2768   -3.3841    0.0000 C   0  0  0  0  0  0  0  0  0  0  0  0
    5.8672   -3.8971    0.0000 C   0  0  0  0  0  0  0  0  0  0  0  0
    4.7181   -2.9329    0.0000 C   0  0  0  0  0  0  0  0  0  0  0  0
    3.8296   -6.4004    0.0000 C   0  0  0  0  0  0  0  0  0  0  0  0
    4.0900   -7.8776    0.0000 C   0  0  0  0  0  0  0  0  0  0  0  0
    3.2014  -12.2474    0.0000 N   0  0  0  0  0  0  0  0  0  0  0  0
    2.9410  -13.7246    0.0000 P   0  0  0  0  0  0  0  0  0  0  0  0
    3.2014  -15.2018    0.0000 O   0  0  0  0  0  0  0  0  0  0  0  0
    4.6110  -15.7148    0.0000 C   0  0  0  0  0  0  0  0  0  0  0  0
    4.8714  -17.1920    0.0000 C   0  0  0  0  0  0  0  0  0  0  0  0
    6.2810  -17.7050    0.0000 C   0  0  0  0  0  0  0  0  0  0  0  0
    7.4300  -16.7409    0.0000 C   0  0  0  0  0  0  0  0  0  0  0  0
    8.8396  -17.2539    0.0000 C   0  0  0  0  0  0  0  0  0  0  0  0
    9.1001  -18.7311    0.0000 N   0  0  0  0  0  0  0  0  0  0  0  0
   10.5096  -19.2441    0.0000 C   0  0  0  0  0  0  0  0  0  0  0  0
   10.7701  -20.7214    0.0000 C   0  0  0  0  0  0  0  0  0  0  0  0
   12.1796  -21.2344    0.0000 C   0  0  0  0  0  0  0  0  0  0  0  0
   13.3287  -20.2702    0.0000 C   0  0  0  0  0  0  0  0  0  0  0  0
   14.7382  -20.7832    0.0000 O   0  0  0  0  0  0  0  0  0  0  0  0
   14.9987  -22.2604    0.0000 C   0  0  0  0  0  0  0  0  0  0  0  0
   16.4082  -22.7735    0.0000 C   0  0  0  0  0  0  0  0  0  0  0  0
   17.8854  -22.5130    0.0000 C   0  0  0  0  0  0  0  0  0  0  0  0
   17.3724  -23.9225    0.0000 O   0  0  0  0  0  0  0  0  0  0  0  0
   13.0682  -18.7930    0.0000 C   0  0  0  0  0  0  0  0  0  0  0  0
   11.6587  -18.2800    0.0000 C   0  0  0  0  0  0  0  0  0  0  0  0
    9.9887  -16.2897    0.0000 P   0  0  0  0  0  0  0  0  0  0  0  0
   10.7387  -17.5888    0.0000 O   0  0  0  0  0  0  0  0  0  0  0  0
    8.8396  -15.3255    0.0000 O   0  0  0  0  0  0  0  0  0  0  0  0
    9.1001  -13.8483    0.0000 C   0  0  0  0  0  0  0  0  0  0  0  0
    7.9510  -12.8841    0.0000 C   0  0  0  0  0  0  0  0  0  0  0  0
    8.2115  -11.4069    0.0000 C   0  0  0  0  0  0  0  0  0  0  0  0
    9.6210  -10.8939    0.0000 C   0  0  0  0  0  0  0  0  0  0  0  0
   10.7701  -11.8581    0.0000 C   0  0  0  0  0  0  0  0  0  0  0  0
   10.5096  -13.3353    0.0000 C   0  0  0  0  0  0  0  0  0  0  0  0
   11.6587  -14.2995    0.0000 C   0  0  0  0  0  0  0  0  0  0  0  0
   13.0682  -13.7864    0.0000 C   0  0  0  0  0  0  0  0  0  0  0  0
   14.2173  -14.7506    0.0000 C   0  0  0  0  0  0  0  0  0  0  0  0
   13.9568  -16.2278    0.0000 C   0  0  0  0  0  0  0  0  0  0  0  0
   12.5473  -16.7409    0.0000 C   0  0  0  0  0  0  0  0  0  0  0  0
   11.3982  -15.7767    0.0000 C   0  0  0  0  0  0  0  0  0  0  0  0
    7.1696  -15.2637    0.0000 C   0  0  0  0  0  0  0  0  0  0  0  0
    5.7600  -14.7506    0.0000 C   0  0  0  0  0  0  0  0  0  0  0  0
    4.4410  -13.7246    0.0000 O   0  0  0  0  0  0  0  0  0  0  0  0
    5.1910  -12.4255    0.0000 C   0  0  0  0  0  0  0  0  0  0  0  0
    4.4410  -11.1265    0.0000 C   0  0  0  0  0  0  0  0  0  0  0  0
    5.1910   -9.8275    0.0000 C   0  0  0  0  0  0  0  0  0  0  0  0
    6.6910   -9.8275    0.0000 C   0  0  0  0  0  0  0  0  0  0  0  0
    7.4410   -8.5284    0.0000 C   0  0  0  0  0  0  0  0  0  0  0  0
    6.6910   -7.2294    0.0000 N   0  0  0  0  0  0  0  0  0  0  0  0
    7.4410   -5.9303    0.0000 C   0  0  0  0  0  0  0  0  0  0  0  0
    8.9410   -5.9303    0.0000 C   0  0  0  0  0  0  0  0  0  0  0  0
    9.6910   -4.6313    0.0000 C   0  0  0  0  0  0  0  0  0  0  0  0
    8.9410   -3.3323    0.0000 C   0  0  0  0  0  0  0  0  0  0  0  0
    9.6910   -2.0332    0.0000 O   0  0  0  0  0  0  0  0  0  0  0  0
   11.1910   -2.0332    0.0000 C   0  0  0  0  0  0  0  0  0  0  0  0
   11.9410   -0.7342    0.0000 C   0  0  0  0  0  0  0  0  0  0  0  0
   11.9410    0.7658    0.0000 C   0  0  0  0  0  0  0  0  0  0  0  0
   13.2400    0.0158    0.0000 O   0  0  0  0  0  0  0  0  0  0  0  0
    7.4410   -3.3323    0.0000 C   0  0  0  0  0  0  0  0  0  0  0  0
    6.6910   -4.6313    0.0000 C   0  0  0  0  0  0  0  0  0  0  0  0
    8.9410   -8.5284    0.0000 P   0  0  0  0  0  0  0  0  0  0  0  0
    8.6805  -10.0056    0.0000 O   0  0  0  0  0  0  0  0  0  0  0  0
    8.6805   -7.0512    0.0000 O   0  0  0  0  0  0  0  0  0  0  0  0
    9.8296   -6.0870    0.0000 C   0  0  0  0  0  0  0  0  0  0  0  0
    9.5691   -4.6098    0.0000 C   0  0  0  0  0  0  0  0  0  0  0  0
   10.7181   -3.6456    0.0000 C   0  0  0  0  0  0  0  0  0  0  0  0
   12.1277   -4.1587    0.0000 C   0  0  0  0  0  0  0  0  0  0  0  0
   12.3882   -5.6359    0.0000 C   0  0  0  0  0  0  0  0  0  0  0  0
   11.2391   -6.6001    0.0000 C   0  0  0  0  0  0  0  0  0  0  0  0
   11.4996   -8.0773    0.0000 C   0  0  0  0  0  0  0  0  0  0  0  0
   12.9091   -8.5903    0.0000 C   0  0  0  0  0  0  0  0  0  0  0  0
   13.1696  -10.0675    0.0000 C   0  0  0  0  0  0  0  0  0  0  0  0
   12.0205  -11.0317    0.0000 C   0  0  0  0  0  0  0  0  0  0  0  0
   10.6110  -10.5187    0.0000 C   0  0  0  0  0  0  0  0  0  0  0  0
   10.3505   -9.0414    0.0000 C   0  0  0  0  0  0  0  0  0  0  0  0
    7.4410  -11.1265    0.0000 C   0  0  0  0  0  0  0  0  0  0  0  0
    6.6910  -12.4255    0.0000 C   0  0  0  0  0  0  0  0  0  0  0  0
    1.5314  -14.2376    0.0000 N   0  0  0  0  0  0  0  0  0  0  0  0
    0.3824  -13.2734    0.0000 P   0  0  0  0  0  0  0  0  0  0  0  0
   -1.0272  -12.7604    0.0000 O   0  0  0  0  0  0  0  0  0  0  0  0
   -2.1763  -13.7246    0.0000 C   0  0  0  0  0  0  0  0  0  0  0  0
   -3.5858  -13.2115    0.0000 C   0  0  0  0  0  0  0  0  0  0  0  0
   -4.7349  -14.1757    0.0000 C   0  0  0  0  0  0  0  0  0  0  0  0
   -4.4744  -15.6529    0.0000 C   0  0  0  0  0  0  0  0  0  0  0  0
   -5.6235  -16.6171    0.0000 C   0  0  0  0  0  0  0  0  0  0  0  0
   -7.0330  -16.1041    0.0000 N   0  0  0  0  0  0  0  0  0  0  0  0
   -8.1821  -17.0683    0.0000 C   0  0  0  0  0  0  0  0  0  0  0  0
   -9.5916  -16.5552    0.0000 C   0  0  0  0  0  0  0  0  0  0  0  0
  -10.7407  -17.5194    0.0000 C   0  0  0  0  0  0  0  0  0  0  0  0
  -10.4802  -18.9966    0.0000 C   0  0  0  0  0  0  0  0  0  0  0  0
  -11.6293  -19.9608    0.0000 O   0  0  0  0  0  0  0  0  0  0  0  0
  -13.0388  -19.4478    0.0000 C   0  0  0  0  0  0  0  0  0  0  0  0
  -14.1879  -20.4120    0.0000 C   0  0  0  0  0  0  0  0  0  0  0  0
  -14.7009  -21.8215    0.0000 C   0  0  0  0  0  0  0  0  0  0  0  0
  -15.6651  -20.6724    0.0000 O   0  0  0  0  0  0  0  0  0  0  0  0
   -9.0707  -19.5097    0.0000 C   0  0  0  0  0  0  0  0  0  0  0  0
   -7.9216  -18.5455    0.0000 C   0  0  0  0  0  0  0  0  0  0  0  0
   -5.3630  -18.0943    0.0000 P   0  0  0  0  0  0  0  0  0  0  0  0
   -3.9534  -17.5813    0.0000 O   0  0  0  0  0  0  0  0  0  0  0  0
   -6.8630  -18.0943    0.0000 O   0  0  0  0  0  0  0  0  0  0  0  0
   -7.6130  -19.3934    0.0000 C   0  0  0  0  0  0  0  0  0  0  0  0
   -9.1130  -19.3934    0.0000 C   0  0  0  0  0  0  0  0  0  0  0  0
   -9.8630  -20.6924    0.0000 C   0  0  0  0  0  0  0  0  0  0  0  0
   -9.1130  -21.9914    0.0000 C   0  0  0  0  0  0  0  0  0  0  0  0
   -7.6130  -21.9914    0.0000 C   0  0  0  0  0  0  0  0  0  0  0  0
   -6.8630  -20.6924    0.0000 C   0  0  0  0  0  0  0  0  0  0  0  0
   -5.3630  -20.6924    0.0000 C   0  0  0  0  0  0  0  0  0  0  0  0
   -4.6130  -21.9914    0.0000 C   0  0  0  0  0  0  0  0  0  0  0  0
   -3.1130  -21.9914    0.0000 C   0  0  0  0  0  0  0  0  0  0  0  0
   -2.3630  -20.6924    0.0000 C   0  0  0  0  0  0  0  0  0  0  0  0
   -3.1130  -19.3934    0.0000 C   0  0  0  0  0  0  0  0  0  0  0  0
   -4.6130  -19.3934    0.0000 C   0  0  0  0  0  0  0  0  0  0  0  0
   -3.0648  -16.1660    0.0000 C   0  0  0  0  0  0  0  0  0  0  0  0
   -1.9158  -15.2018    0.0000 C   0  0  0  0  0  0  0  0  0  0  0  0
   -0.3676  -14.5725    0.0000 O   0  0  0  0  0  0  0  0  0  0  0  0
   -1.8676  -14.5725    0.0000 C   0  0  0  0  0  0  0  0  0  0  0  0
   -2.6176  -13.2734    0.0000 C   0  0  0  0  0  0  0  0  0  0  0  0
   -4.1176  -13.2734    0.0000 C   0  0  0  0  0  0  0  0  0  0  0  0
   -4.8676  -14.5725    0.0000 C   0  0  0  0  0  0  0  0  0  0  0  0
   -6.3676  -14.5725    0.0000 C   0  0  0  0  0  0  0  0  0  0  0  0
   -7.1176  -13.2734    0.0000 N   0  0  0  0  0  0  0  0  0  0  0  0
   -8.6176  -13.2734    0.0000 C   0  0  0  0  0  0  0  0  0  0  0  0
   -9.3676  -11.9744    0.0000 C   0  0  0  0  0  0  0  0  0  0  0  0
  -10.8676  -11.9744    0.0000 C   0  0  0  0  0  0  0  0  0  0  0  0
  -11.6176  -13.2734    0.0000 C   0  0  0  0  0  0  0  0  0  0  0  0
  -13.1176  -13.2734    0.0000 O   0  0  0  0  0  0  0  0  0  0  0  0
  -13.8676  -11.9744    0.0000 C   0  0  0  0  0  0  0  0  0  0  0  0
  -15.3676  -11.9744    0.0000 C   0  0  0  0  0  0  0  0  0  0  0  0
  -16.6667  -12.7244    0.0000 C   0  0  0  0  0  0  0  0  0  0  0  0
  -16.6667  -11.2244    0.0000 O   0  0  0  0  0  0  0  0  0  0  0  0
  -10.8676  -14.5725    0.0000 C   0  0  0  0  0  0  0  0  0  0  0  0
   -9.3676  -14.5725    0.0000 C   0  0  0  0  0  0  0  0  0  0  0  0
   -7.1176  -15.8715    0.0000 P   0  0  0  0  0  0  0  0  0  0  0  0
   -5.8741  -16.7103    0.0000 O   0  0  0  0  0  0  0  0  0  0  0  0
   -8.2667  -14.9073    0.0000 O   0  0  0  0  0  0  0  0  0  0  0  0
   -9.6763  -15.4203    0.0000 C   0  0  0  0  0  0  0  0  0  0  0  0
  -10.8253  -14.4562    0.0000 C   0  0  0  0  0  0  0  0  0  0  0  0
  -12.2349  -14.9692    0.0000 C   0  0  0  0  0  0  0  0  0  0  0  0
  -12.4953  -16.4464    0.0000 C   0  0  0  0  0  0  0  0  0  0  0  0
  -11.3463  -17.4106    0.0000 C   0  0  0  0  0  0  0  0  0  0  0  0
   -9.9367  -16.8976    0.0000 C   0  0  0  0  0  0  0  0  0  0  0  0
   -8.7877  -17.8617    0.0000 C   0  0  0  0  0  0  0  0  0  0  0  0
   -9.0481  -19.3389    0.0000 C   0  0  0  0  0  0  0  0  0  0  0  0
   -7.8991  -20.3031    0.0000 C   0  0  0  0  0  0  0  0  0  0  0  0
   -6.4895  -19.7901    0.0000 C   0  0  0  0  0  0  0  0  0  0  0  0
   -6.2291  -18.3129    0.0000 C   0  0  0  0  0  0  0  0  0  0  0  0
   -7.3781  -17.3487    0.0000 C   0  0  0  0  0  0  0  0  0  0  0  0
   -4.1176  -15.8715    0.0000 C   0  0  0  0  0  0  0  0  0  0  0  0
   -2.6176  -15.8715    0.0000 C   0  0  0  0  0  0  0  0  0  0  0  0
    0.6428  -11.7962    0.0000 N   0  0  0  0  0  0  0  0  0  0  0  0
   -0.9476   -8.6851    0.0000 C   0  0  0  0  0  0  0  0  0  0  0  0
   -2.4476   -8.6851    0.0000 C   0  0  0  0  0  0  0  0  0  0  0  0
   -6.5967  -10.3190    0.0000 O   0  0  0  0  0  0  0  0  0  0  0  0
   -8.0062  -10.8320    0.0000 C   0  0  0  0  0  0  0  0  0  0  0  0
   -9.1553   -9.8678    0.0000 C   0  0  0  0  0  0  0  0  0  0  0  0
  -10.5648  -10.3809    0.0000 C   0  0  0  0  0  0  0  0  0  0  0  0
  -10.8253  -11.8581    0.0000 C   0  0  0  0  0  0  0  0  0  0  0  0
   -9.6763  -12.8223    0.0000 C   0  0  0  0  0  0  0  0  0  0  0  0
   -8.2667  -12.3092    0.0000 C   0  0  0  0  0  0  0  0  0  0  0  0
   -7.1176  -13.2734    0.0000 C   0  0  0  0  0  0  0  0  0  0  0  0
   -7.3781  -14.7506    0.0000 C   0  0  0  0  0  0  0  0  0  0  0  0
   -6.2291  -15.7148    0.0000 C   0  0  0  0  0  0  0  0  0  0  0  0
   -4.8195  -15.2018    0.0000 C   0  0  0  0  0  0  0  0  0  0  0  0
   -4.5590  -13.7246    0.0000 C   0  0  0  0  0  0  0  0  0  0  0  0
   -5.7081  -12.7604    0.0000 C   0  0  0  0  0  0  0  0  0  0  0  0
  1  2  2  0
  2  3  1  0
  3  4  1  0
  4  5  1  0
  5  6  2  0
  6  7  1  0
  7  8  2  0
  8  9  1  0
  9 10  1  0
 10 11  1  0
 11 12  1  0
 12 13  1  0
  8 14  1  0
 14 15  2  0
  3 16  1  0
 16 17  2  0
 17 18  1  0
 18 19  2  0
 19 20  1  0
 20 21  1  0
 21 22  1  0
 22 23  1  0
 23 24  2  0
 24 25  1  0
 25 26  2  0
 26 27  1  0
 27 28  1  0
 28 29  1  0
 29 30  2  0
 30 31  1  0
 31 32  2  0
 32 33  1  0
 33 34  1  0
 34 35  1  0
 35 36  1  0
 36 37  1  0
 32 38  1  0
 38 39  2  0
 27 40  1  0
 40 41  2  0
 40 42  1  0
 42 43  1  0
 43 44  2  0
 44 45  1  0
 45 46  2  0
 46 47  1  0
 47 48  2  0
 48 49  1  0
 49 50  2  0
 50 51  1  0
 51 52  2  0
 52 53  1  0
 53 54  2  0
 26 55  1  0
 55 56  2  0
 21 57  2  0
 57 58  1  0
 58 59  1  0
 59 60  1  0
 60 61  2  0
 61 62  1  0
 62 63  2  0
 63 64  1  0
 64 65  1  0
 65 66  1  0
 66 67  2  0
 67 68  1  0
 68 69  2  0
 69 70  1  0
 70 71  1  0
 71 72  1  0
 72 73  1  0
 73 74  1  0
 69 75  1  0
 75 76  2  0
 64 77  1  0
 77 78  2  0
 77 79  1  0
 79 80  1  0
 80 81  2  0
 81 82  1  0
 82 83  2  0
 83 84  1  0
 84 85  2  0
 85 86  1  0
 86 87  2  0
 87 88  1  0
 88 89  2  0
 89 90  1  0
 90 91  2  0
 63 92  1  0
 92 93  2  0
 58 94  1  0
 94 95  1  0
 95 96  2  0
 96 97  1  0
 97 98  2  0
 98 99  1  0
 99100  1  0
100101  1  0
101102  2  0
102103  1  0
103104  2  0
104105  1  0
105106  1  0
106107  1  0
107108  1  0
108109  1  0
104110  1  0
110111  2  0
 99112  1  0
112113  2  0
112114  1  0
114115  1  0
115116  2  0
116117  1  0
117118  2  0
118119  1  0
119120  2  0
120121  1  0
121122  2  0
122123  1  0
123124  2  0
124125  1  0
125126  2  0
 98127  1  0
127128  2  0
 58129  2  0
129130  1  0
130131  1  0
131132  1  0
132133  2  0
133134  1  0
134135  2  0
135136  1  0
136137  1  0
137138  1  0
138139  2  0
139140  1  0
140141  2  0
141142  1  0
142143  1  0
143144  1  0
144145  1  0
145146  1  0
141147  1  0
147148  2  0
136149  1  0
149150  2  0
149151  1  0
151152  1  0
152153  2  0
153154  1  0
154155  2  0
155156  1  0
156157  2  0
157158  1  0
158159  2  0
159160  1  0
160161  2  0
161162  1  0
162163  2  0
135164  1  0
164165  2  0
130166  1  0
166167  1  0
167168  2  0
168169  1  0
169170  2  0
170171  1  0
171172  1  0
172173  1  0
173174  2  0
174175  1  0
175176  2  0
176177  1  0
177178  1  0
178179  1  0
179180  1  0
180181  1  0
176182  1  0
182183  2  0
171184  1  0
184185  2  0
184186  1  0
186187  1  0
187188  2  0
188189  1  0
189190  2  0
190191  1  0
191192  2  0
192193  1  0
193194  2  0
194195  1  0
195196  2  0
196197  1  0
197198  2  0
170199  1  0
199200  2  0
130201  2  0
 19202  1  0
202203  2  0
  2204  1  0
204205  1  0
205206  2  0
206207  1  0
207208  2  0
208209  1  0
209210  2  0
210211  1  0
211212  2  0
212213  1  0
213214  2  0
214215  1  0
215216  2  0
216  2  1  0
 15  5  1  0
203 16  1  0
210205  1  0
216211  1  0
 13 11  1  0
201 21  1  0
 56 23  1  0
 93 60  1  0
128 95  1  0
165132  1  0
200167  1  0
 39 29  1  0
 54 40  1  0
 76 66  1  0
 91 77  1  0
111101  1  0
126112  1  0
148138  1  0
163149  1  0
183173  1  0
198184  1  0
 37 35  1  0
 48 43  1  0
 54 49  1  0
 74 72  1  0
 85 80  1  0
 91 86  1  0
109107  1  0
120115  1  0
126121  1  0
146144  1  0
157152  1  0
163158  1  0
181179  1  0
192187  1  0
198193  1  0
M  END
>  <Candidate_ID>  (31) 
CAND_R2_031

>  <Candidate_Name>  (31) 
CTP-DOPO-OH-glycidyl-all

>  <Parent_Seed_ID>  (31) 
TRAIN_041

>  <Parent_Name>  (31) 
CTP-DOPO

>  <Transformation_Code>  (31) 
OH_glycidyl_all

>  <Design_Family>  (31) 
P-N

>  <Preparation_Type>  (31) 
Co-curing

>  <Synthesis_Level>  (31) 
C

>  <Parent_Tanimoto_r3>  (31) 
0.7311827956989247

>  <Max_Train_Tanimoto_r3>  (31) 
0.7311827956989247

>  <Risk_Flags>  (31) 
high molecular weight; high DOPO count; exploratory only; excluded from formal screening

$$$$
CAND_R2_032 | CTP-DOPO-OH-methyl
     RDKit          2D

193223  0  0  0  0  0  0  0  0999 V2000
  -12.1976   -7.3861    0.0000 C   0  0  0  0  0  0  0  0  0  0  0  0
  -11.4476   -8.6851    0.0000 O   0  0  0  0  0  0  0  0  0  0  0  0
   -9.9476   -8.6851    0.0000 C   0  0  0  0  0  0  0  0  0  0  0  0
   -9.1976   -7.3861    0.0000 C   0  0  0  0  0  0  0  0  0  0  0  0
   -7.6976   -7.3861    0.0000 C   0  0  0  0  0  0  0  0  0  0  0  0
   -6.9476   -8.6851    0.0000 C   0  0  0  0  0  0  0  0  0  0  0  0
   -5.4476   -8.6851    0.0000 N   0  0  0  0  0  0  0  0  0  0  0  0
   -4.6976   -9.9841    0.0000 C   0  0  0  0  0  0  0  0  0  0  0  0
   -3.1976   -9.9841    0.0000 C   0  0  0  0  0  0  0  0  0  0  0  0
   -2.4476  -11.2832    0.0000 C   0  0  0  0  0  0  0  0  0  0  0  0
   -0.9476  -11.2832    0.0000 C   0  0  0  0  0  0  0  0  0  0  0  0
   -0.1976   -9.9841    0.0000 C   0  0  0  0  0  0  0  0  0  0  0  0
    1.3024   -9.9841    0.0000 O   0  0  0  0  0  0  0  0  0  0  0  0
    2.0524  -11.2832    0.0000 P   0  0  0  0  0  0  0  0  0  0  0  0
    3.2014  -10.3190    0.0000 O   0  0  0  0  0  0  0  0  0  0  0  0
    2.9410   -8.8418    0.0000 C   0  0  0  0  0  0  0  0  0  0  0  0
    1.5314   -8.3287    0.0000 C   0  0  0  0  0  0  0  0  0  0  0  0
    1.2709   -6.8515    0.0000 C   0  0  0  0  0  0  0  0  0  0  0  0
    2.4200   -5.8874    0.0000 C   0  0  0  0  0  0  0  0  0  0  0  0
    2.1595   -4.4101    0.0000 C   0  0  0  0  0  0  0  0  0  0  0  0
    0.7500   -3.8971    0.0000 N   0  0  0  0  0  0  0  0  0  0  0  0
   -0.3991   -4.8613    0.0000 C   0  0  0  0  0  0  0  0  0  0  0  0
   -0.1386   -6.3385    0.0000 C   0  0  0  0  0  0  0  0  0  0  0  0
   -1.2877   -7.3027    0.0000 C   0  0  0  0  0  0  0  0  0  0  0  0
   -2.6972   -6.7897    0.0000 C   0  0  0  0  0  0  0  0  0  0  0  0
   -3.8463   -7.7538    0.0000 O   0  0  0  0  0  0  0  0  0  0  0  0
   -2.9577   -5.3124    0.0000 C   0  0  0  0  0  0  0  0  0  0  0  0
   -1.8086   -4.3483    0.0000 C   0  0  0  0  0  0  0  0  0  0  0  0
    3.3086   -3.4460    0.0000 P   0  0  0  0  0  0  0  0  0  0  0  0
    4.0586   -4.7450    0.0000 O   0  0  0  0  0  0  0  0  0  0  0  0
    2.1595   -2.4818    0.0000 O   0  0  0  0  0  0  0  0  0  0  0  0
    2.4200   -1.0046    0.0000 C   0  0  0  0  0  0  0  0  0  0  0  0
    1.2709   -0.0404    0.0000 C   0  0  0  0  0  0  0  0  0  0  0  0
    1.5314    1.4368    0.0000 C   0  0  0  0  0  0  0  0  0  0  0  0
    2.9410    1.9499    0.0000 C   0  0  0  0  0  0  0  0  0  0  0  0
    4.0900    0.9857    0.0000 C   0  0  0  0  0  0  0  0  0  0  0  0
    3.8296   -0.4915    0.0000 C   0  0  0  0  0  0  0  0  0  0  0  0
    4.9786   -1.4557    0.0000 C   0  0  0  0  0  0  0  0  0  0  0  0
    6.3882   -0.9427    0.0000 C   0  0  0  0  0  0  0  0  0  0  0  0
    7.5372   -1.9069    0.0000 C   0  0  0  0  0  0  0  0  0  0  0  0
    7.2768   -3.3841    0.0000 C   0  0  0  0  0  0  0  0  0  0  0  0
    5.8672   -3.8971    0.0000 C   0  0  0  0  0  0  0  0  0  0  0  0
    4.7181   -2.9329    0.0000 C   0  0  0  0  0  0  0  0  0  0  0  0
    3.8296   -6.4004    0.0000 C   0  0  0  0  0  0  0  0  0  0  0  0
    4.0900   -7.8776    0.0000 C   0  0  0  0  0  0  0  0  0  0  0  0
    3.2014  -12.2474    0.0000 N   0  0  0  0  0  0  0  0  0  0  0  0
    2.9410  -13.7246    0.0000 P   0  0  0  0  0  0  0  0  0  0  0  0
    3.2014  -15.2018    0.0000 O   0  0  0  0  0  0  0  0  0  0  0  0
    4.6110  -15.7148    0.0000 C   0  0  0  0  0  0  0  0  0  0  0  0
    4.8714  -17.1920    0.0000 C   0  0  0  0  0  0  0  0  0  0  0  0
    6.2810  -17.7050    0.0000 C   0  0  0  0  0  0  0  0  0  0  0  0
    7.4300  -16.7409    0.0000 C   0  0  0  0  0  0  0  0  0  0  0  0
    8.8396  -17.2539    0.0000 C   0  0  0  0  0  0  0  0  0  0  0  0
    9.1001  -18.7311    0.0000 N   0  0  0  0  0  0  0  0  0  0  0  0
   10.5096  -19.2441    0.0000 C   0  0  0  0  0  0  0  0  0  0  0  0
   10.7701  -20.7214    0.0000 C   0  0  0  0  0  0  0  0  0  0  0  0
   12.1796  -21.2344    0.0000 C   0  0  0  0  0  0  0  0  0  0  0  0
   13.3287  -20.2702    0.0000 C   0  0  0  0  0  0  0  0  0  0  0  0
   14.7382  -20.7832    0.0000 O   0  0  0  0  0  0  0  0  0  0  0  0
   13.0682  -18.7930    0.0000 C   0  0  0  0  0  0  0  0  0  0  0  0
   11.6587  -18.2800    0.0000 C   0  0  0  0  0  0  0  0  0  0  0  0
    9.9887  -16.2897    0.0000 P   0  0  0  0  0  0  0  0  0  0  0  0
   10.7387  -17.5888    0.0000 O   0  0  0  0  0  0  0  0  0  0  0  0
    8.8396  -15.3255    0.0000 O   0  0  0  0  0  0  0  0  0  0  0  0
    9.1001  -13.8483    0.0000 C   0  0  0  0  0  0  0  0  0  0  0  0
    7.9510  -12.8841    0.0000 C   0  0  0  0  0  0  0  0  0  0  0  0
    8.2115  -11.4069    0.0000 C   0  0  0  0  0  0  0  0  0  0  0  0
    9.6210  -10.8939    0.0000 C   0  0  0  0  0  0  0  0  0  0  0  0
   10.7701  -11.8581    0.0000 C   0  0  0  0  0  0  0  0  0  0  0  0
   10.5096  -13.3353    0.0000 C   0  0  0  0  0  0  0  0  0  0  0  0
   11.6587  -14.2995    0.0000 C   0  0  0  0  0  0  0  0  0  0  0  0
   13.0682  -13.7864    0.0000 C   0  0  0  0  0  0  0  0  0  0  0  0
   14.2173  -14.7506    0.0000 C   0  0  0  0  0  0  0  0  0  0  0  0
   13.9568  -16.2278    0.0000 C   0  0  0  0  0  0  0  0  0  0  0  0
   12.5473  -16.7409    0.0000 C   0  0  0  0  0  0  0  0  0  0  0  0
   11.3982  -15.7767    0.0000 C   0  0  0  0  0  0  0  0  0  0  0  0
    7.1696  -15.2637    0.0000 C   0  0  0  0  0  0  0  0  0  0  0  0
    5.7600  -14.7506    0.0000 C   0  0  0  0  0  0  0  0  0  0  0  0
    4.4410  -13.7246    0.0000 O   0  0  0  0  0  0  0  0  0  0  0  0
    5.1910  -12.4255    0.0000 C   0  0  0  0  0  0  0  0  0  0  0  0
    4.4410  -11.1265    0.0000 C   0  0  0  0  0  0  0  0  0  0  0  0
    5.1910   -9.8275    0.0000 C   0  0  0  0  0  0  0  0  0  0  0  0
    6.6910   -9.8275    0.0000 C   0  0  0  0  0  0  0  0  0  0  0  0
    7.4410   -8.5284    0.0000 C   0  0  0  0  0  0  0  0  0  0  0  0
    6.6910   -7.2294    0.0000 N   0  0  0  0  0  0  0  0  0  0  0  0
    5.1910   -7.2294    0.0000 C   0  0  0  0  0  0  0  0  0  0  0  0
    4.4410   -5.9303    0.0000 C   0  0  0  0  0  0  0  0  0  0  0  0
    2.9410   -5.9303    0.0000 C   0  0  0  0  0  0  0  0  0  0  0  0
    2.1910   -7.2294    0.0000 C   0  0  0  0  0  0  0  0  0  0  0  0
    0.7355   -6.8664    0.0000 O   0  0  0  0  0  0  0  0  0  0  0  0
    2.9410   -8.5284    0.0000 C   0  0  0  0  0  0  0  0  0  0  0  0
    4.4410   -8.5284    0.0000 C   0  0  0  0  0  0  0  0  0  0  0  0
    8.9410   -8.5284    0.0000 P   0  0  0  0  0  0  0  0  0  0  0  0
    8.6805  -10.0056    0.0000 O   0  0  0  0  0  0  0  0  0  0  0  0
    8.6805   -7.0512    0.0000 O   0  0  0  0  0  0  0  0  0  0  0  0
    9.8296   -6.0870    0.0000 C   0  0  0  0  0  0  0  0  0  0  0  0
    9.5691   -4.6098    0.0000 C   0  0  0  0  0  0  0  0  0  0  0  0
   10.7181   -3.6456    0.0000 C   0  0  0  0  0  0  0  0  0  0  0  0
   12.1277   -4.1587    0.0000 C   0  0  0  0  0  0  0  0  0  0  0  0
   12.3882   -5.6359    0.0000 C   0  0  0  0  0  0  0  0  0  0  0  0
   11.2391   -6.6001    0.0000 C   0  0  0  0  0  0  0  0  0  0  0  0
   11.4996   -8.0773    0.0000 C   0  0  0  0  0  0  0  0  0  0  0  0
   12.9091   -8.5903    0.0000 C   0  0  0  0  0  0  0  0  0  0  0  0
   13.1696  -10.0675    0.0000 C   0  0  0  0  0  0  0  0  0  0  0  0
   12.0205  -11.0317    0.0000 C   0  0  0  0  0  0  0  0  0  0  0  0
   10.6110  -10.5187    0.0000 C   0  0  0  0  0  0  0  0  0  0  0  0
   10.3505   -9.0414    0.0000 C   0  0  0  0  0  0  0  0  0  0  0  0
    7.4410  -11.1265    0.0000 C   0  0  0  0  0  0  0  0  0  0  0  0
    6.6910  -12.4255    0.0000 C   0  0  0  0  0  0  0  0  0  0  0  0
    1.5314  -14.2376    0.0000 N   0  0  0  0  0  0  0  0  0  0  0  0
    0.3824  -13.2734    0.0000 P   0  0  0  0  0  0  0  0  0  0  0  0
   -1.0272  -12.7604    0.0000 O   0  0  0  0  0  0  0  0  0  0  0  0
   -2.1763  -13.7246    0.0000 C   0  0  0  0  0  0  0  0  0  0  0  0
   -3.5858  -13.2115    0.0000 C   0  0  0  0  0  0  0  0  0  0  0  0
   -4.7349  -14.1757    0.0000 C   0  0  0  0  0  0  0  0  0  0  0  0
   -4.4744  -15.6529    0.0000 C   0  0  0  0  0  0  0  0  0  0  0  0
   -5.6235  -16.6171    0.0000 C   0  0  0  0  0  0  0  0  0  0  0  0
   -7.0330  -16.1041    0.0000 N   0  0  0  0  0  0  0  0  0  0  0  0
   -8.1821  -17.0683    0.0000 C   0  0  0  0  0  0  0  0  0  0  0  0
   -9.5916  -16.5552    0.0000 C   0  0  0  0  0  0  0  0  0  0  0  0
  -10.7407  -17.5194    0.0000 C   0  0  0  0  0  0  0  0  0  0  0  0
  -10.4802  -18.9966    0.0000 C   0  0  0  0  0  0  0  0  0  0  0  0
  -11.6293  -19.9608    0.0000 O   0  0  0  0  0  0  0  0  0  0  0  0
   -9.0707  -19.5097    0.0000 C   0  0  0  0  0  0  0  0  0  0  0  0
   -7.9216  -18.5455    0.0000 C   0  0  0  0  0  0  0  0  0  0  0  0
   -5.3630  -18.0943    0.0000 P   0  0  0  0  0  0  0  0  0  0  0  0
   -3.9534  -17.5813    0.0000 O   0  0  0  0  0  0  0  0  0  0  0  0
   -6.8630  -18.0943    0.0000 O   0  0  0  0  0  0  0  0  0  0  0  0
   -7.6130  -19.3934    0.0000 C   0  0  0  0  0  0  0  0  0  0  0  0
   -9.1130  -19.3934    0.0000 C   0  0  0  0  0  0  0  0  0  0  0  0
   -9.8630  -20.6924    0.0000 C   0  0  0  0  0  0  0  0  0  0  0  0
   -9.1130  -21.9914    0.0000 C   0  0  0  0  0  0  0  0  0  0  0  0
   -7.6130  -21.9914    0.0000 C   0  0  0  0  0  0  0  0  0  0  0  0
   -6.8630  -20.6924    0.0000 C   0  0  0  0  0  0  0  0  0  0  0  0
   -5.3630  -20.6924    0.0000 C   0  0  0  0  0  0  0  0  0  0  0  0
   -4.6130  -21.9914    0.0000 C   0  0  0  0  0  0  0  0  0  0  0  0
   -3.1130  -21.9914    0.0000 C   0  0  0  0  0  0  0  0  0  0  0  0
   -2.3630  -20.6924    0.0000 C   0  0  0  0  0  0  0  0  0  0  0  0
   -3.1130  -19.3934    0.0000 C   0  0  0  0  0  0  0  0  0  0  0  0
   -4.6130  -19.3934    0.0000 C   0  0  0  0  0  0  0  0  0  0  0  0
   -3.0648  -16.1660    0.0000 C   0  0  0  0  0  0  0  0  0  0  0  0
   -1.9158  -15.2018    0.0000 C   0  0  0  0  0  0  0  0  0  0  0  0
   -0.3676  -14.5725    0.0000 O   0  0  0  0  0  0  0  0  0  0  0  0
   -1.8676  -14.5725    0.0000 C   0  0  0  0  0  0  0  0  0  0  0  0
   -2.6176  -13.2734    0.0000 C   0  0  0  0  0  0  0  0  0  0  0  0
   -4.1176  -13.2734    0.0000 C   0  0  0  0  0  0  0  0  0  0  0  0
   -4.8676  -14.5725    0.0000 C   0  0  0  0  0  0  0  0  0  0  0  0
   -6.3676  -14.5725    0.0000 C   0  0  0  0  0  0  0  0  0  0  0  0
   -7.1176  -13.2734    0.0000 N   0  0  0  0  0  0  0  0  0  0  0  0
   -8.6176  -13.2734    0.0000 C   0  0  0  0  0  0  0  0  0  0  0  0
   -9.3676  -11.9744    0.0000 C   0  0  0  0  0  0  0  0  0  0  0  0
  -10.8676  -11.9744    0.0000 C   0  0  0  0  0  0  0  0  0  0  0  0
  -11.6176  -13.2734    0.0000 C   0  0  0  0  0  0  0  0  0  0  0  0
  -13.1176  -13.2734    0.0000 O   0  0  0  0  0  0  0  0  0  0  0  0
  -10.8676  -14.5725    0.0000 C   0  0  0  0  0  0  0  0  0  0  0  0
   -9.3676  -14.5725    0.0000 C   0  0  0  0  0  0  0  0  0  0  0  0
   -7.1176  -15.8715    0.0000 P   0  0  0  0  0  0  0  0  0  0  0  0
   -5.8741  -16.7103    0.0000 O   0  0  0  0  0  0  0  0  0  0  0  0
   -8.2667  -14.9073    0.0000 O   0  0  0  0  0  0  0  0  0  0  0  0
   -9.6763  -15.4203    0.0000 C   0  0  0  0  0  0  0  0  0  0  0  0
  -10.8253  -14.4562    0.0000 C   0  0  0  0  0  0  0  0  0  0  0  0
  -12.2349  -14.9692    0.0000 C   0  0  0  0  0  0  0  0  0  0  0  0
  -12.4953  -16.4464    0.0000 C   0  0  0  0  0  0  0  0  0  0  0  0
  -11.3463  -17.4106    0.0000 C   0  0  0  0  0  0  0  0  0  0  0  0
   -9.9367  -16.8976    0.0000 C   0  0  0  0  0  0  0  0  0  0  0  0
   -8.7877  -17.8617    0.0000 C   0  0  0  0  0  0  0  0  0  0  0  0
   -9.0481  -19.3389    0.0000 C   0  0  0  0  0  0  0  0  0  0  0  0
   -7.8991  -20.3031    0.0000 C   0  0  0  0  0  0  0  0  0  0  0  0
   -6.4895  -19.7901    0.0000 C   0  0  0  0  0  0  0  0  0  0  0  0
   -6.2291  -18.3129    0.0000 C   0  0  0  0  0  0  0  0  0  0  0  0
   -7.3781  -17.3487    0.0000 C   0  0  0  0  0  0  0  0  0  0  0  0
   -4.1176  -15.8715    0.0000 C   0  0  0  0  0  0  0  0  0  0  0  0
   -2.6176  -15.8715    0.0000 C   0  0  0  0  0  0  0  0  0  0  0  0
    0.6428  -11.7962    0.0000 N   0  0  0  0  0  0  0  0  0  0  0  0
   -0.9476   -8.6851    0.0000 C   0  0  0  0  0  0  0  0  0  0  0  0
   -2.4476   -8.6851    0.0000 C   0  0  0  0  0  0  0  0  0  0  0  0
   -5.4476  -11.2832    0.0000 P   0  0  0  0  0  0  0  0  0  0  0  0
   -4.0381  -11.7962    0.0000 O   0  0  0  0  0  0  0  0  0  0  0  0
   -6.5967  -10.3190    0.0000 O   0  0  0  0  0  0  0  0  0  0  0  0
   -8.0062  -10.8320    0.0000 C   0  0  0  0  0  0  0  0  0  0  0  0
   -9.1553   -9.8678    0.0000 C   0  0  0  0  0  0  0  0  0  0  0  0
  -10.5648  -10.3809    0.0000 C   0  0  0  0  0  0  0  0  0  0  0  0
  -10.8253  -11.8581    0.0000 C   0  0  0  0  0  0  0  0  0  0  0  0
   -9.6763  -12.8223    0.0000 C   0  0  0  0  0  0  0  0  0  0  0  0
   -8.2667  -12.3092    0.0000 C   0  0  0  0  0  0  0  0  0  0  0  0
   -7.1176  -13.2734    0.0000 C   0  0  0  0  0  0  0  0  0  0  0  0
   -7.3781  -14.7506    0.0000 C   0  0  0  0  0  0  0  0  0  0  0  0
   -6.2291  -15.7148    0.0000 C   0  0  0  0  0  0  0  0  0  0  0  0
   -4.8195  -15.2018    0.0000 C   0  0  0  0  0  0  0  0  0  0  0  0
   -4.5590  -13.7246    0.0000 C   0  0  0  0  0  0  0  0  0  0  0  0
   -5.7081  -12.7604    0.0000 C   0  0  0  0  0  0  0  0  0  0  0  0
   -7.6976   -9.9841    0.0000 C   0  0  0  0  0  0  0  0  0  0  0  0
   -9.1976   -9.9841    0.0000 C   0  0  0  0  0  0  0  0  0  0  0  0
  1  2  1  0
  2  3  1  0
  3  4  2  0
  4  5  1  0
  5  6  2  0
  6  7  1  0
  7  8  1  0
  8  9  1  0
  9 10  2  0
 10 11  1  0
 11 12  2  0
 12 13  1  0
 13 14  1  0
 14 15  1  0
 15 16  1  0
 16 17  2  0
 17 18  1  0
 18 19  2  0
 19 20  1  0
 20 21  1  0
 21 22  1  0
 22 23  2  0
 23 24  1  0
 24 25  2  0
 25 26  1  0
 25 27  1  0
 27 28  2  0
 20 29  1  0
 29 30  2  0
 29 31  1  0
 31 32  1  0
 32 33  2  0
 33 34  1  0
 34 35  2  0
 35 36  1  0
 36 37  2  0
 37 38  1  0
 38 39  2  0
 39 40  1  0
 40 41  2  0
 41 42  1  0
 42 43  2  0
 19 44  1  0
 44 45  2  0
 14 46  2  0
 46 47  1  0
 47 48  1  0
 48 49  1  0
 49 50  2  0
 50 51  1  0
 51 52  2  0
 52 53  1  0
 53 54  1  0
 54 55  1  0
 55 56  2  0
 56 57  1  0
 57 58  2  0
 58 59  1  0
 58 60  1  0
 60 61  2  0
 53 62  1  0
 62 63  2  0
 62 64  1  0
 64 65  1  0
 65 66  2  0
 66 67  1  0
 67 68  2  0
 68 69  1  0
 69 70  2  0
 70 71  1  0
 71 72  2  0
 72 73  1  0
 73 74  2  0
 74 75  1  0
 75 76  2  0
 52 77  1  0
 77 78  2  0
 47 79  1  0
 79 80  1  0
 80 81  2  0
 81 82  1  0
 82 83  2  0
 83 84  1  0
 84 85  1  0
 85 86  1  0
 86 87  2  0
 87 88  1  0
 88 89  2  0
 89 90  1  0
 89 91  1  0
 91 92  2  0
 84 93  1  0
 93 94  2  0
 93 95  1  0
 95 96  1  0
 96 97  2  0
 97 98  1  0
 98 99  2  0
 99100  1  0
100101  2  0
101102  1  0
102103  2  0
103104  1  0
104105  2  0
105106  1  0
106107  2  0
 83108  1  0
108109  2  0
 47110  2  0
110111  1  0
111112  1  0
112113  1  0
113114  2  0
114115  1  0
115116  2  0
116117  1  0
117118  1  0
118119  1  0
119120  2  0
120121  1  0
121122  2  0
122123  1  0
122124  1  0
124125  2  0
117126  1  0
126127  2  0
126128  1  0
128129  1  0
129130  2  0
130131  1  0
131132  2  0
132133  1  0
133134  2  0
134135  1  0
135136  2  0
136137  1  0
137138  2  0
138139  1  0
139140  2  0
116141  1  0
141142  2  0
111143  1  0
143144  1  0
144145  2  0
145146  1  0
146147  2  0
147148  1  0
148149  1  0
149150  1  0
150151  2  0
151152  1  0
152153  2  0
153154  1  0
153155  1  0
155156  2  0
148157  1  0
157158  2  0
157159  1  0
159160  1  0
160161  2  0
161162  1  0
162163  2  0
163164  1  0
164165  2  0
165166  1  0
166167  2  0
167168  1  0
168169  2  0
169170  1  0
170171  2  0
147172  1  0
172173  2  0
111174  2  0
 12175  1  0
175176  2  0
  8177  1  0
177178  2  0
177179  1  0
179180  1  0
180181  2  0
181182  1  0
182183  2  0
183184  1  0
184185  2  0
185186  1  0
186187  2  0
187188  1  0
188189  2  0
189190  1  0
190191  2  0
  6192  1  0
192193  2  0
193  3  1  0
176  9  1  0
191177  1  0
174 14  1  0
185180  1  0
191186  1  0
 45 16  1  0
 78 49  1  0
109 80  1  0
142113  1  0
173144  1  0
 28 22  1  0
 43 29  1  0
 61 55  1  0
 76 62  1  0
 92 86  1  0
107 93  1  0
125119  1  0
140126  1  0
156150  1  0
171157  1  0
 37 32  1  0
 43 38  1  0
 70 65  1  0
 76 71  1  0
101 96  1  0
107102  1  0
134129  1  0
140135  1  0
165160  1  0
171166  1  0
M  END
>  <Candidate_ID>  (32) 
CAND_R2_032

>  <Candidate_Name>  (32) 
CTP-DOPO-OH-methyl

>  <Parent_Seed_ID>  (32) 
TRAIN_041

>  <Parent_Name>  (32) 
CTP-DOPO

>  <Transformation_Code>  (32) 
OH_methyl

>  <Design_Family>  (32) 
P-N

>  <Preparation_Type>  (32) 
Additive

>  <Synthesis_Level>  (32) 
C

>  <Parent_Tanimoto_r3>  (32) 
0.9146341463414634

>  <Max_Train_Tanimoto_r3>  (32) 
0.9146341463414634

>  <Risk_Flags>  (32) 
high molecular weight; high DOPO count; exploratory only; excluded from formal screening

$$$$
CAND_R2_033 | CTP-DOPO-OH-methyl-all
     RDKit          2D

198228  0  0  0  0  0  0  0  0999 V2000
  -12.1976   -7.3861    0.0000 C   0  0  0  0  0  0  0  0  0  0  0  0
  -11.4476   -8.6851    0.0000 O   0  0  0  0  0  0  0  0  0  0  0  0
   -9.9476   -8.6851    0.0000 C   0  0  0  0  0  0  0  0  0  0  0  0
   -9.1976   -7.3861    0.0000 C   0  0  0  0  0  0  0  0  0  0  0  0
   -7.6976   -7.3861    0.0000 C   0  0  0  0  0  0  0  0  0  0  0  0
   -6.9476   -8.6851    0.0000 C   0  0  0  0  0  0  0  0  0  0  0  0
   -5.4476   -8.6851    0.0000 N   0  0  0  0  0  0  0  0  0  0  0  0
   -4.6976   -9.9841    0.0000 C   0  0  0  0  0  0  0  0  0  0  0  0
   -3.1976   -9.9841    0.0000 C   0  0  0  0  0  0  0  0  0  0  0  0
   -2.4476  -11.2832    0.0000 C   0  0  0  0  0  0  0  0  0  0  0  0
   -0.9476  -11.2832    0.0000 C   0  0  0  0  0  0  0  0  0  0  0  0
   -0.1976   -9.9841    0.0000 C   0  0  0  0  0  0  0  0  0  0  0  0
    1.3024   -9.9841    0.0000 O   0  0  0  0  0  0  0  0  0  0  0  0
    2.0524  -11.2832    0.0000 P   0  0  0  0  0  0  0  0  0  0  0  0
    3.2014  -10.3190    0.0000 O   0  0  0  0  0  0  0  0  0  0  0  0
    2.9410   -8.8418    0.0000 C   0  0  0  0  0  0  0  0  0  0  0  0
    4.0900   -7.8776    0.0000 C   0  0  0  0  0  0  0  0  0  0  0  0
    3.8296   -6.4004    0.0000 C   0  0  0  0  0  0  0  0  0  0  0  0
    2.4200   -5.8874    0.0000 C   0  0  0  0  0  0  0  0  0  0  0  0
    2.1595   -4.4101    0.0000 C   0  0  0  0  0  0  0  0  0  0  0  0
    3.3086   -3.4460    0.0000 N   0  0  0  0  0  0  0  0  0  0  0  0
    4.7181   -3.9590    0.0000 C   0  0  0  0  0  0  0  0  0  0  0  0
    4.9786   -5.4362    0.0000 C   0  0  0  0  0  0  0  0  0  0  0  0
    6.3882   -5.9492    0.0000 C   0  0  0  0  0  0  0  0  0  0  0  0
    7.5372   -4.9851    0.0000 C   0  0  0  0  0  0  0  0  0  0  0  0
    8.9468   -5.4981    0.0000 O   0  0  0  0  0  0  0  0  0  0  0  0
    8.8420   -6.9944    0.0000 C   0  0  0  0  0  0  0  0  0  0  0  0
    7.2768   -3.5078    0.0000 C   0  0  0  0  0  0  0  0  0  0  0  0
    5.8672   -2.9948    0.0000 C   0  0  0  0  0  0  0  0  0  0  0  0
    0.7500   -3.8971    0.0000 P   0  0  0  0  0  0  0  0  0  0  0  0
    0.4895   -5.3743    0.0000 O   0  0  0  0  0  0  0  0  0  0  0  0
    1.5000   -2.5981    0.0000 O   0  0  0  0  0  0  0  0  0  0  0  0
    0.7500   -1.2990    0.0000 C   0  0  0  0  0  0  0  0  0  0  0  0
    1.5000   -0.0000    0.0000 C   0  0  0  0  0  0  0  0  0  0  0  0
    0.7500    1.2990    0.0000 C   0  0  0  0  0  0  0  0  0  0  0  0
   -0.7500    1.2990    0.0000 C   0  0  0  0  0  0  0  0  0  0  0  0
   -1.5000   -0.0000    0.0000 C   0  0  0  0  0  0  0  0  0  0  0  0
   -0.7500   -1.2990    0.0000 C   0  0  0  0  0  0  0  0  0  0  0  0
   -1.5000   -2.5981    0.0000 C   0  0  0  0  0  0  0  0  0  0  0  0
   -3.0000   -2.5981    0.0000 C   0  0  0  0  0  0  0  0  0  0  0  0
   -3.7500   -3.8971    0.0000 C   0  0  0  0  0  0  0  0  0  0  0  0
   -3.0000   -5.1962    0.0000 C   0  0  0  0  0  0  0  0  0  0  0  0
   -1.5000   -5.1962    0.0000 C   0  0  0  0  0  0  0  0  0  0  0  0
   -0.7500   -3.8971    0.0000 C   0  0  0  0  0  0  0  0  0  0  0  0
    1.2709   -6.8515    0.0000 C   0  0  0  0  0  0  0  0  0  0  0  0
    1.5314   -8.3287    0.0000 C   0  0  0  0  0  0  0  0  0  0  0  0
    3.2014  -12.2474    0.0000 N   0  0  0  0  0  0  0  0  0  0  0  0
    2.9410  -13.7246    0.0000 P   0  0  0  0  0  0  0  0  0  0  0  0
    3.2014  -15.2018    0.0000 O   0  0  0  0  0  0  0  0  0  0  0  0
    4.6110  -15.7148    0.0000 C   0  0  0  0  0  0  0  0  0  0  0  0
    4.8714  -17.1920    0.0000 C   0  0  0  0  0  0  0  0  0  0  0  0
    6.2810  -17.7050    0.0000 C   0  0  0  0  0  0  0  0  0  0  0  0
    7.4300  -16.7409    0.0000 C   0  0  0  0  0  0  0  0  0  0  0  0
    8.8396  -17.2539    0.0000 C   0  0  0  0  0  0  0  0  0  0  0  0
    9.1001  -18.7311    0.0000 N   0  0  0  0  0  0  0  0  0  0  0  0
   10.5096  -19.2441    0.0000 C   0  0  0  0  0  0  0  0  0  0  0  0
   10.7701  -20.7214    0.0000 C   0  0  0  0  0  0  0  0  0  0  0  0
   12.1796  -21.2344    0.0000 C   0  0  0  0  0  0  0  0  0  0  0  0
   13.3287  -20.2702    0.0000 C   0  0  0  0  0  0  0  0  0  0  0  0
   14.7382  -20.7832    0.0000 O   0  0  0  0  0  0  0  0  0  0  0  0
   14.9987  -22.2604    0.0000 C   0  0  0  0  0  0  0  0  0  0  0  0
   13.0682  -18.7930    0.0000 C   0  0  0  0  0  0  0  0  0  0  0  0
   11.6587  -18.2800    0.0000 C   0  0  0  0  0  0  0  0  0  0  0  0
    9.9887  -16.2897    0.0000 P   0  0  0  0  0  0  0  0  0  0  0  0
   10.7387  -17.5888    0.0000 O   0  0  0  0  0  0  0  0  0  0  0  0
    8.8396  -15.3255    0.0000 O   0  0  0  0  0  0  0  0  0  0  0  0
    9.1001  -13.8483    0.0000 C   0  0  0  0  0  0  0  0  0  0  0  0
    7.9510  -12.8841    0.0000 C   0  0  0  0  0  0  0  0  0  0  0  0
    8.2115  -11.4069    0.0000 C   0  0  0  0  0  0  0  0  0  0  0  0
    9.6210  -10.8939    0.0000 C   0  0  0  0  0  0  0  0  0  0  0  0
   10.7701  -11.8581    0.0000 C   0  0  0  0  0  0  0  0  0  0  0  0
   10.5096  -13.3353    0.0000 C   0  0  0  0  0  0  0  0  0  0  0  0
   11.6587  -14.2995    0.0000 C   0  0  0  0  0  0  0  0  0  0  0  0
   13.0682  -13.7864    0.0000 C   0  0  0  0  0  0  0  0  0  0  0  0
   14.2173  -14.7506    0.0000 C   0  0  0  0  0  0  0  0  0  0  0  0
   13.9568  -16.2278    0.0000 C   0  0  0  0  0  0  0  0  0  0  0  0
   12.5473  -16.7409    0.0000 C   0  0  0  0  0  0  0  0  0  0  0  0
   11.3982  -15.7767    0.0000 C   0  0  0  0  0  0  0  0  0  0  0  0
    7.1696  -15.2637    0.0000 C   0  0  0  0  0  0  0  0  0  0  0  0
    5.7600  -14.7506    0.0000 C   0  0  0  0  0  0  0  0  0  0  0  0
    4.4410  -13.7246    0.0000 O   0  0  0  0  0  0  0  0  0  0  0  0
    5.1910  -12.4255    0.0000 C   0  0  0  0  0  0  0  0  0  0  0  0
    4.4410  -11.1265    0.0000 C   0  0  0  0  0  0  0  0  0  0  0  0
    5.1910   -9.8275    0.0000 C   0  0  0  0  0  0  0  0  0  0  0  0
    6.6910   -9.8275    0.0000 C   0  0  0  0  0  0  0  0  0  0  0  0
    7.4410   -8.5284    0.0000 C   0  0  0  0  0  0  0  0  0  0  0  0
    6.6910   -7.2294    0.0000 N   0  0  0  0  0  0  0  0  0  0  0  0
    5.1910   -7.2294    0.0000 C   0  0  0  0  0  0  0  0  0  0  0  0
    4.4410   -8.5284    0.0000 C   0  0  0  0  0  0  0  0  0  0  0  0
    2.9410   -8.5284    0.0000 C   0  0  0  0  0  0  0  0  0  0  0  0
    2.1910   -7.2294    0.0000 C   0  0  0  0  0  0  0  0  0  0  0  0
    0.6910   -7.2294    0.0000 O   0  0  0  0  0  0  0  0  0  0  0  0
   -0.0590   -8.5284    0.0000 C   0  0  0  0  0  0  0  0  0  0  0  0
    2.9410   -5.9303    0.0000 C   0  0  0  0  0  0  0  0  0  0  0  0
    4.4410   -5.9303    0.0000 C   0  0  0  0  0  0  0  0  0  0  0  0
    8.9410   -8.5284    0.0000 P   0  0  0  0  0  0  0  0  0  0  0  0
    8.6805  -10.0056    0.0000 O   0  0  0  0  0  0  0  0  0  0  0  0
    8.6805   -7.0512    0.0000 O   0  0  0  0  0  0  0  0  0  0  0  0
    9.8296   -6.0870    0.0000 C   0  0  0  0  0  0  0  0  0  0  0  0
    9.5691   -4.6098    0.0000 C   0  0  0  0  0  0  0  0  0  0  0  0
   10.7181   -3.6456    0.0000 C   0  0  0  0  0  0  0  0  0  0  0  0
   12.1277   -4.1587    0.0000 C   0  0  0  0  0  0  0  0  0  0  0  0
   12.3882   -5.6359    0.0000 C   0  0  0  0  0  0  0  0  0  0  0  0
   11.2391   -6.6001    0.0000 C   0  0  0  0  0  0  0  0  0  0  0  0
   11.4996   -8.0773    0.0000 C   0  0  0  0  0  0  0  0  0  0  0  0
   12.9091   -8.5903    0.0000 C   0  0  0  0  0  0  0  0  0  0  0  0
   13.1696  -10.0675    0.0000 C   0  0  0  0  0  0  0  0  0  0  0  0
   12.0205  -11.0317    0.0000 C   0  0  0  0  0  0  0  0  0  0  0  0
   10.6110  -10.5187    0.0000 C   0  0  0  0  0  0  0  0  0  0  0  0
   10.3505   -9.0414    0.0000 C   0  0  0  0  0  0  0  0  0  0  0  0
    7.4410  -11.1265    0.0000 C   0  0  0  0  0  0  0  0  0  0  0  0
    6.6910  -12.4255    0.0000 C   0  0  0  0  0  0  0  0  0  0  0  0
    1.5314  -14.2376    0.0000 N   0  0  0  0  0  0  0  0  0  0  0  0
    0.3824  -13.2734    0.0000 P   0  0  0  0  0  0  0  0  0  0  0  0
   -1.0272  -12.7604    0.0000 O   0  0  0  0  0  0  0  0  0  0  0  0
   -2.1763  -13.7246    0.0000 C   0  0  0  0  0  0  0  0  0  0  0  0
   -3.5858  -13.2115    0.0000 C   0  0  0  0  0  0  0  0  0  0  0  0
   -4.7349  -14.1757    0.0000 C   0  0  0  0  0  0  0  0  0  0  0  0
   -4.4744  -15.6529    0.0000 C   0  0  0  0  0  0  0  0  0  0  0  0
   -5.6235  -16.6171    0.0000 C   0  0  0  0  0  0  0  0  0  0  0  0
   -7.0330  -16.1041    0.0000 N   0  0  0  0  0  0  0  0  0  0  0  0
   -8.1821  -17.0683    0.0000 C   0  0  0  0  0  0  0  0  0  0  0  0
   -9.5916  -16.5552    0.0000 C   0  0  0  0  0  0  0  0  0  0  0  0
  -10.7407  -17.5194    0.0000 C   0  0  0  0  0  0  0  0  0  0  0  0
  -10.4802  -18.9966    0.0000 C   0  0  0  0  0  0  0  0  0  0  0  0
  -11.6293  -19.9608    0.0000 O   0  0  0  0  0  0  0  0  0  0  0  0
  -13.0388  -19.4478    0.0000 C   0  0  0  0  0  0  0  0  0  0  0  0
   -9.0707  -19.5097    0.0000 C   0  0  0  0  0  0  0  0  0  0  0  0
   -7.9216  -18.5455    0.0000 C   0  0  0  0  0  0  0  0  0  0  0  0
   -5.3630  -18.0943    0.0000 P   0  0  0  0  0  0  0  0  0  0  0  0
   -3.9534  -17.5813    0.0000 O   0  0  0  0  0  0  0  0  0  0  0  0
   -6.8630  -18.0943    0.0000 O   0  0  0  0  0  0  0  0  0  0  0  0
   -7.6130  -19.3934    0.0000 C   0  0  0  0  0  0  0  0  0  0  0  0
   -9.1130  -19.3934    0.0000 C   0  0  0  0  0  0  0  0  0  0  0  0
   -9.8630  -20.6924    0.0000 C   0  0  0  0  0  0  0  0  0  0  0  0
   -9.1130  -21.9914    0.0000 C   0  0  0  0  0  0  0  0  0  0  0  0
   -7.6130  -21.9914    0.0000 C   0  0  0  0  0  0  0  0  0  0  0  0
   -6.8630  -20.6924    0.0000 C   0  0  0  0  0  0  0  0  0  0  0  0
   -5.3630  -20.6924    0.0000 C   0  0  0  0  0  0  0  0  0  0  0  0
   -4.6130  -21.9914    0.0000 C   0  0  0  0  0  0  0  0  0  0  0  0
   -3.1130  -21.9914    0.0000 C   0  0  0  0  0  0  0  0  0  0  0  0
   -2.3630  -20.6924    0.0000 C   0  0  0  0  0  0  0  0  0  0  0  0
   -3.1130  -19.3934    0.0000 C   0  0  0  0  0  0  0  0  0  0  0  0
   -4.6130  -19.3934    0.0000 C   0  0  0  0  0  0  0  0  0  0  0  0
   -3.0648  -16.1660    0.0000 C   0  0  0  0  0  0  0  0  0  0  0  0
   -1.9158  -15.2018    0.0000 C   0  0  0  0  0  0  0  0  0  0  0  0
   -0.3676  -14.5725    0.0000 O   0  0  0  0  0  0  0  0  0  0  0  0
   -1.8676  -14.5725    0.0000 C   0  0  0  0  0  0  0  0  0  0  0  0
   -2.6176  -13.2734    0.0000 C   0  0  0  0  0  0  0  0  0  0  0  0
   -4.1176  -13.2734    0.0000 C   0  0  0  0  0  0  0  0  0  0  0  0
   -4.8676  -14.5725    0.0000 C   0  0  0  0  0  0  0  0  0  0  0  0
   -6.3676  -14.5725    0.0000 C   0  0  0  0  0  0  0  0  0  0  0  0
   -7.1176  -13.2734    0.0000 N   0  0  0  0  0  0  0  0  0  0  0  0
   -8.6176  -13.2734    0.0000 C   0  0  0  0  0  0  0  0  0  0  0  0
   -9.3676  -11.9744    0.0000 C   0  0  0  0  0  0  0  0  0  0  0  0
  -10.8676  -11.9744    0.0000 C   0  0  0  0  0  0  0  0  0  0  0  0
  -11.6176  -13.2734    0.0000 C   0  0  0  0  0  0  0  0  0  0  0  0
  -13.1176  -13.2734    0.0000 O   0  0  0  0  0  0  0  0  0  0  0  0
  -13.8676  -11.9744    0.0000 C   0  0  0  0  0  0  0  0  0  0  0  0
  -10.8676  -14.5725    0.0000 C   0  0  0  0  0  0  0  0  0  0  0  0
   -9.3676  -14.5725    0.0000 C   0  0  0  0  0  0  0  0  0  0  0  0
   -7.1176  -15.8715    0.0000 P   0  0  0  0  0  0  0  0  0  0  0  0
   -5.8741  -16.7103    0.0000 O   0  0  0  0  0  0  0  0  0  0  0  0
   -8.2667  -14.9073    0.0000 O   0  0  0  0  0  0  0  0  0  0  0  0
   -9.6763  -15.4203    0.0000 C   0  0  0  0  0  0  0  0  0  0  0  0
  -10.8253  -14.4562    0.0000 C   0  0  0  0  0  0  0  0  0  0  0  0
  -12.2349  -14.9692    0.0000 C   0  0  0  0  0  0  0  0  0  0  0  0
  -12.4953  -16.4464    0.0000 C   0  0  0  0  0  0  0  0  0  0  0  0
  -11.3463  -17.4106    0.0000 C   0  0  0  0  0  0  0  0  0  0  0  0
   -9.9367  -16.8976    0.0000 C   0  0  0  0  0  0  0  0  0  0  0  0
   -8.7877  -17.8617    0.0000 C   0  0  0  0  0  0  0  0  0  0  0  0
   -9.0481  -19.3389    0.0000 C   0  0  0  0  0  0  0  0  0  0  0  0
   -7.8991  -20.3031    0.0000 C   0  0  0  0  0  0  0  0  0  0  0  0
   -6.4895  -19.7901    0.0000 C   0  0  0  0  0  0  0  0  0  0  0  0
   -6.2291  -18.3129    0.0000 C   0  0  0  0  0  0  0  0  0  0  0  0
   -7.3781  -17.3487    0.0000 C   0  0  0  0  0  0  0  0  0  0  0  0
   -4.1176  -15.8715    0.0000 C   0  0  0  0  0  0  0  0  0  0  0  0
   -2.6176  -15.8715    0.0000 C   0  0  0  0  0  0  0  0  0  0  0  0
    0.6428  -11.7962    0.0000 N   0  0  0  0  0  0  0  0  0  0  0  0
   -0.9476   -8.6851    0.0000 C   0  0  0  0  0  0  0  0  0  0  0  0
   -2.4476   -8.6851    0.0000 C   0  0  0  0  0  0  0  0  0  0  0  0
   -5.4476  -11.2832    0.0000 P   0  0  0  0  0  0  0  0  0  0  0  0
   -4.0381  -11.7962    0.0000 O   0  0  0  0  0  0  0  0  0  0  0  0
   -6.5967  -10.3190    0.0000 O   0  0  0  0  0  0  0  0  0  0  0  0
   -8.0062  -10.8320    0.0000 C   0  0  0  0  0  0  0  0  0  0  0  0
   -9.1553   -9.8678    0.0000 C   0  0  0  0  0  0  0  0  0  0  0  0
  -10.5648  -10.3809    0.0000 C   0  0  0  0  0  0  0  0  0  0  0  0
  -10.8253  -11.8581    0.0000 C   0  0  0  0  0  0  0  0  0  0  0  0
   -9.6763  -12.8223    0.0000 C   0  0  0  0  0  0  0  0  0  0  0  0
   -8.2667  -12.3092    0.0000 C   0  0  0  0  0  0  0  0  0  0  0  0
   -7.1176  -13.2734    0.0000 C   0  0  0  0  0  0  0  0  0  0  0  0
   -7.3781  -14.7506    0.0000 C   0  0  0  0  0  0  0  0  0  0  0  0
   -6.2291  -15.7148    0.0000 C   0  0  0  0  0  0  0  0  0  0  0  0
   -4.8195  -15.2018    0.0000 C   0  0  0  0  0  0  0  0  0  0  0  0
   -4.5590  -13.7246    0.0000 C   0  0  0  0  0  0  0  0  0  0  0  0
   -5.7081  -12.7604    0.0000 C   0  0  0  0  0  0  0  0  0  0  0  0
   -7.6976   -9.9841    0.0000 C   0  0  0  0  0  0  0  0  0  0  0  0
   -9.1976   -9.9841    0.0000 C   0  0  0  0  0  0  0  0  0  0  0  0
  1  2  1  0
  2  3  1  0
  3  4  2  0
  4  5  1  0
  5  6  2  0
  6  7  1  0
  7  8  1  0
  8  9  1  0
  9 10  2  0
 10 11  1  0
 11 12  2  0
 12 13  1  0
 13 14  1  0
 14 15  1  0
 15 16  1  0
 16 17  2  0
 17 18  1  0
 18 19  2  0
 19 20  1  0
 20 21  1  0
 21 22  1  0
 22 23  2  0
 23 24  1  0
 24 25  2  0
 25 26  1  0
 26 27  1  0
 25 28  1  0
 28 29  2  0
 20 30  1  0
 30 31  2  0
 30 32  1  0
 32 33  1  0
 33 34  2  0
 34 35  1  0
 35 36  2  0
 36 37  1  0
 37 38  2  0
 38 39  1  0
 39 40  2  0
 40 41  1  0
 41 42  2  0
 42 43  1  0
 43 44  2  0
 19 45  1  0
 45 46  2  0
 14 47  2  0
 47 48  1  0
 48 49  1  0
 49 50  1  0
 50 51  2  0
 51 52  1  0
 52 53  2  0
 53 54  1  0
 54 55  1  0
 55 56  1  0
 56 57  2  0
 57 58  1  0
 58 59  2  0
 59 60  1  0
 60 61  1  0
 59 62  1  0
 62 63  2  0
 54 64  1  0
 64 65  2  0
 64 66  1  0
 66 67  1  0
 67 68  2  0
 68 69  1  0
 69 70  2  0
 70 71  1  0
 71 72  2  0
 72 73  1  0
 73 74  2  0
 74 75  1  0
 75 76  2  0
 76 77  1  0
 77 78  2  0
 53 79  1  0
 79 80  2  0
 48 81  1  0
 81 82  1  0
 82 83  2  0
 83 84  1  0
 84 85  2  0
 85 86  1  0
 86 87  1  0
 87 88  1  0
 88 89  2  0
 89 90  1  0
 90 91  2  0
 91 92  1  0
 92 93  1  0
 91 94  1  0
 94 95  2  0
 86 96  1  0
 96 97  2  0
 96 98  1  0
 98 99  1  0
 99100  2  0
100101  1  0
101102  2  0
102103  1  0
103104  2  0
104105  1  0
105106  2  0
106107  1  0
107108  2  0
108109  1  0
109110  2  0
 85111  1  0
111112  2  0
 48113  2  0
113114  1  0
114115  1  0
115116  1  0
116117  2  0
117118  1  0
118119  2  0
119120  1  0
120121  1  0
121122  1  0
122123  2  0
123124  1  0
124125  2  0
125126  1  0
126127  1  0
125128  1  0
128129  2  0
120130  1  0
130131  2  0
130132  1  0
132133  1  0
133134  2  0
134135  1  0
135136  2  0
136137  1  0
137138  2  0
138139  1  0
139140  2  0
140141  1  0
141142  2  0
142143  1  0
143144  2  0
119145  1  0
145146  2  0
114147  1  0
147148  1  0
148149  2  0
149150  1  0
150151  2  0
151152  1  0
152153  1  0
153154  1  0
154155  2  0
155156  1  0
156157  2  0
157158  1  0
158159  1  0
157160  1  0
160161  2  0
152162  1  0
162163  2  0
162164  1  0
164165  1  0
165166  2  0
166167  1  0
167168  2  0
168169  1  0
169170  2  0
170171  1  0
171172  2  0
172173  1  0
173174  2  0
174175  1  0
175176  2  0
151177  1  0
177178  2  0
114179  2  0
 12180  1  0
180181  2  0
  8182  1  0
182183  2  0
182184  1  0
184185  1  0
185186  2  0
186187  1  0
187188  2  0
188189  1  0
189190  2  0
190191  1  0
191192  2  0
192193  1  0
193194  2  0
194195  1  0
195196  2  0
  6197  1  0
197198  2  0
198  3  1  0
181  9  1  0
196182  1  0
179 14  1  0
190185  1  0
196191  1  0
 46 16  1  0
 80 50  1  0
112 82  1  0
146116  1  0
178148  1  0
 29 22  1  0
 44 30  1  0
 63 56  1  0
 78 64  1  0
 95 88  1  0
110 96  1  0
129122  1  0
144130  1  0
161154  1  0
176162  1  0
 38 33  1  0
 44 39  1  0
 72 67  1  0
 78 73  1  0
104 99  1  0
110105  1  0
138133  1  0
144139  1  0
170165  1  0
176171  1  0
M  END
>  <Candidate_ID>  (33) 
CAND_R2_033

>  <Candidate_Name>  (33) 
CTP-DOPO-OH-methyl-all

>  <Parent_Seed_ID>  (33) 
TRAIN_041

>  <Parent_Name>  (33) 
CTP-DOPO

>  <Transformation_Code>  (33) 
OH_methyl_all

>  <Design_Family>  (33) 
P-N

>  <Preparation_Type>  (33) 
Additive

>  <Synthesis_Level>  (33) 
C

>  <Parent_Tanimoto_r3>  (33) 
0.8292682926829268

>  <Max_Train_Tanimoto_r3>  (33) 
0.8292682926829268

>  <Risk_Flags>  (33) 
high molecular weight; high DOPO count; exploratory only; excluded from formal screening

$$$$
CAND_R2_034 | CTP-DOPO-OH-acetyl
     RDKit          2D

195225  0  0  0  0  0  0  0  0999 V2000
  -13.6976   -7.3861    0.0000 C   0  0  0  0  0  0  0  0  0  0  0  0
  -12.1976   -7.3861    0.0000 C   0  0  0  0  0  0  0  0  0  0  0  0
  -11.4476   -6.0870    0.0000 O   0  0  0  0  0  0  0  0  0  0  0  0
  -11.4476   -8.6851    0.0000 O   0  0  0  0  0  0  0  0  0  0  0  0
   -9.9476   -8.6851    0.0000 C   0  0  0  0  0  0  0  0  0  0  0  0
   -9.1976   -7.3861    0.0000 C   0  0  0  0  0  0  0  0  0  0  0  0
   -7.6976   -7.3861    0.0000 C   0  0  0  0  0  0  0  0  0  0  0  0
   -6.9476   -8.6851    0.0000 C   0  0  0  0  0  0  0  0  0  0  0  0
   -5.4476   -8.6851    0.0000 N   0  0  0  0  0  0  0  0  0  0  0  0
   -4.6976   -9.9841    0.0000 C   0  0  0  0  0  0  0  0  0  0  0  0
   -3.1976   -9.9841    0.0000 C   0  0  0  0  0  0  0  0  0  0  0  0
   -2.4476  -11.2832    0.0000 C   0  0  0  0  0  0  0  0  0  0  0  0
   -0.9476  -11.2832    0.0000 C   0  0  0  0  0  0  0  0  0  0  0  0
   -0.1976   -9.9841    0.0000 C   0  0  0  0  0  0  0  0  0  0  0  0
    1.3024   -9.9841    0.0000 O   0  0  0  0  0  0  0  0  0  0  0  0
    2.0524  -11.2832    0.0000 P   0  0  0  0  0  0  0  0  0  0  0  0
    3.2014  -10.3190    0.0000 O   0  0  0  0  0  0  0  0  0  0  0  0
    2.9410   -8.8418    0.0000 C   0  0  0  0  0  0  0  0  0  0  0  0
    1.5314   -8.3287    0.0000 C   0  0  0  0  0  0  0  0  0  0  0  0
    1.2709   -6.8515    0.0000 C   0  0  0  0  0  0  0  0  0  0  0  0
    2.4200   -5.8874    0.0000 C   0  0  0  0  0  0  0  0  0  0  0  0
    2.1595   -4.4101    0.0000 C   0  0  0  0  0  0  0  0  0  0  0  0
    0.7500   -3.8971    0.0000 N   0  0  0  0  0  0  0  0  0  0  0  0
   -0.3991   -4.8613    0.0000 C   0  0  0  0  0  0  0  0  0  0  0  0
   -0.1386   -6.3385    0.0000 C   0  0  0  0  0  0  0  0  0  0  0  0
   -1.2877   -7.3027    0.0000 C   0  0  0  0  0  0  0  0  0  0  0  0
   -2.6972   -6.7897    0.0000 C   0  0  0  0  0  0  0  0  0  0  0  0
   -3.8463   -7.7538    0.0000 O   0  0  0  0  0  0  0  0  0  0  0  0
   -2.9577   -5.3124    0.0000 C   0  0  0  0  0  0  0  0  0  0  0  0
   -1.8086   -4.3483    0.0000 C   0  0  0  0  0  0  0  0  0  0  0  0
    3.3086   -3.4460    0.0000 P   0  0  0  0  0  0  0  0  0  0  0  0
    4.0586   -4.7450    0.0000 O   0  0  0  0  0  0  0  0  0  0  0  0
    2.1595   -2.4818    0.0000 O   0  0  0  0  0  0  0  0  0  0  0  0
    2.4200   -1.0046    0.0000 C   0  0  0  0  0  0  0  0  0  0  0  0
    1.2709   -0.0404    0.0000 C   0  0  0  0  0  0  0  0  0  0  0  0
    1.5314    1.4368    0.0000 C   0  0  0  0  0  0  0  0  0  0  0  0
    2.9410    1.9499    0.0000 C   0  0  0  0  0  0  0  0  0  0  0  0
    4.0900    0.9857    0.0000 C   0  0  0  0  0  0  0  0  0  0  0  0
    3.8296   -0.4915    0.0000 C   0  0  0  0  0  0  0  0  0  0  0  0
    4.9786   -1.4557    0.0000 C   0  0  0  0  0  0  0  0  0  0  0  0
    6.3882   -0.9427    0.0000 C   0  0  0  0  0  0  0  0  0  0  0  0
    7.5372   -1.9069    0.0000 C   0  0  0  0  0  0  0  0  0  0  0  0
    7.2768   -3.3841    0.0000 C   0  0  0  0  0  0  0  0  0  0  0  0
    5.8672   -3.8971    0.0000 C   0  0  0  0  0  0  0  0  0  0  0  0
    4.7181   -2.9329    0.0000 C   0  0  0  0  0  0  0  0  0  0  0  0
    3.8296   -6.4004    0.0000 C   0  0  0  0  0  0  0  0  0  0  0  0
    4.0900   -7.8776    0.0000 C   0  0  0  0  0  0  0  0  0  0  0  0
    3.2014  -12.2474    0.0000 N   0  0  0  0  0  0  0  0  0  0  0  0
    2.9410  -13.7246    0.0000 P   0  0  0  0  0  0  0  0  0  0  0  0
    3.2014  -15.2018    0.0000 O   0  0  0  0  0  0  0  0  0  0  0  0
    4.6110  -15.7148    0.0000 C   0  0  0  0  0  0  0  0  0  0  0  0
    4.8714  -17.1920    0.0000 C   0  0  0  0  0  0  0  0  0  0  0  0
    6.2810  -17.7050    0.0000 C   0  0  0  0  0  0  0  0  0  0  0  0
    7.4300  -16.7409    0.0000 C   0  0  0  0  0  0  0  0  0  0  0  0
    8.8396  -17.2539    0.0000 C   0  0  0  0  0  0  0  0  0  0  0  0
    9.1001  -18.7311    0.0000 N   0  0  0  0  0  0  0  0  0  0  0  0
   10.5096  -19.2441    0.0000 C   0  0  0  0  0  0  0  0  0  0  0  0
   10.7701  -20.7214    0.0000 C   0  0  0  0  0  0  0  0  0  0  0  0
   12.1796  -21.2344    0.0000 C   0  0  0  0  0  0  0  0  0  0  0  0
   13.3287  -20.2702    0.0000 C   0  0  0  0  0  0  0  0  0  0  0  0
   14.7382  -20.7832    0.0000 O   0  0  0  0  0  0  0  0  0  0  0  0
   13.0682  -18.7930    0.0000 C   0  0  0  0  0  0  0  0  0  0  0  0
   11.6587  -18.2800    0.0000 C   0  0  0  0  0  0  0  0  0  0  0  0
    9.9887  -16.2897    0.0000 P   0  0  0  0  0  0  0  0  0  0  0  0
   10.7387  -17.5888    0.0000 O   0  0  0  0  0  0  0  0  0  0  0  0
    8.8396  -15.3255    0.0000 O   0  0  0  0  0  0  0  0  0  0  0  0
    9.1001  -13.8483    0.0000 C   0  0  0  0  0  0  0  0  0  0  0  0
    7.9510  -12.8841    0.0000 C   0  0  0  0  0  0  0  0  0  0  0  0
    8.2115  -11.4069    0.0000 C   0  0  0  0  0  0  0  0  0  0  0  0
    9.6210  -10.8939    0.0000 C   0  0  0  0  0  0  0  0  0  0  0  0
   10.7701  -11.8581    0.0000 C   0  0  0  0  0  0  0  0  0  0  0  0
   10.5096  -13.3353    0.0000 C   0  0  0  0  0  0  0  0  0  0  0  0
   11.6587  -14.2995    0.0000 C   0  0  0  0  0  0  0  0  0  0  0  0
   13.0682  -13.7864    0.0000 C   0  0  0  0  0  0  0  0  0  0  0  0
   14.2173  -14.7506    0.0000 C   0  0  0  0  0  0  0  0  0  0  0  0
   13.9568  -16.2278    0.0000 C   0  0  0  0  0  0  0  0  0  0  0  0
   12.5473  -16.7409    0.0000 C   0  0  0  0  0  0  0  0  0  0  0  0
   11.3982  -15.7767    0.0000 C   0  0  0  0  0  0  0  0  0  0  0  0
    7.1696  -15.2637    0.0000 C   0  0  0  0  0  0  0  0  0  0  0  0
    5.7600  -14.7506    0.0000 C   0  0  0  0  0  0  0  0  0  0  0  0
    4.4410  -13.7246    0.0000 O   0  0  0  0  0  0  0  0  0  0  0  0
    5.1910  -12.4255    0.0000 C   0  0  0  0  0  0  0  0  0  0  0  0
    4.4410  -11.1265    0.0000 C   0  0  0  0  0  0  0  0  0  0  0  0
    5.1910   -9.8275    0.0000 C   0  0  0  0  0  0  0  0  0  0  0  0
    6.6910   -9.8275    0.0000 C   0  0  0  0  0  0  0  0  0  0  0  0
    7.4410   -8.5284    0.0000 C   0  0  0  0  0  0  0  0  0  0  0  0
    6.6910   -7.2294    0.0000 N   0  0  0  0  0  0  0  0  0  0  0  0
    5.1910   -7.2294    0.0000 C   0  0  0  0  0  0  0  0  0  0  0  0
    4.4410   -5.9303    0.0000 C   0  0  0  0  0  0  0  0  0  0  0  0
    2.9410   -5.9303    0.0000 C   0  0  0  0  0  0  0  0  0  0  0  0
    2.1910   -7.2294    0.0000 C   0  0  0  0  0  0  0  0  0  0  0  0
    0.7355   -6.8664    0.0000 O   0  0  0  0  0  0  0  0  0  0  0  0
    2.9410   -8.5284    0.0000 C   0  0  0  0  0  0  0  0  0  0  0  0
    4.4410   -8.5284    0.0000 C   0  0  0  0  0  0  0  0  0  0  0  0
    8.9410   -8.5284    0.0000 P   0  0  0  0  0  0  0  0  0  0  0  0
    8.6805  -10.0056    0.0000 O   0  0  0  0  0  0  0  0  0  0  0  0
    8.6805   -7.0512    0.0000 O   0  0  0  0  0  0  0  0  0  0  0  0
    9.8296   -6.0870    0.0000 C   0  0  0  0  0  0  0  0  0  0  0  0
    9.5691   -4.6098    0.0000 C   0  0  0  0  0  0  0  0  0  0  0  0
   10.7181   -3.6456    0.0000 C   0  0  0  0  0  0  0  0  0  0  0  0
   12.1277   -4.1587    0.0000 C   0  0  0  0  0  0  0  0  0  0  0  0
   12.3882   -5.6359    0.0000 C   0  0  0  0  0  0  0  0  0  0  0  0
   11.2391   -6.6001    0.0000 C   0  0  0  0  0  0  0  0  0  0  0  0
   11.4996   -8.0773    0.0000 C   0  0  0  0  0  0  0  0  0  0  0  0
   12.9091   -8.5903    0.0000 C   0  0  0  0  0  0  0  0  0  0  0  0
   13.1696  -10.0675    0.0000 C   0  0  0  0  0  0  0  0  0  0  0  0
   12.0205  -11.0317    0.0000 C   0  0  0  0  0  0  0  0  0  0  0  0
   10.6110  -10.5187    0.0000 C   0  0  0  0  0  0  0  0  0  0  0  0
   10.3505   -9.0414    0.0000 C   0  0  0  0  0  0  0  0  0  0  0  0
    7.4410  -11.1265    0.0000 C   0  0  0  0  0  0  0  0  0  0  0  0
    6.6910  -12.4255    0.0000 C   0  0  0  0  0  0  0  0  0  0  0  0
    1.5314  -14.2376    0.0000 N   0  0  0  0  0  0  0  0  0  0  0  0
    0.3824  -13.2734    0.0000 P   0  0  0  0  0  0  0  0  0  0  0  0
   -1.0272  -12.7604    0.0000 O   0  0  0  0  0  0  0  0  0  0  0  0
   -2.1763  -13.7246    0.0000 C   0  0  0  0  0  0  0  0  0  0  0  0
   -3.5858  -13.2115    0.0000 C   0  0  0  0  0  0  0  0  0  0  0  0
   -4.7349  -14.1757    0.0000 C   0  0  0  0  0  0  0  0  0  0  0  0
   -4.4744  -15.6529    0.0000 C   0  0  0  0  0  0  0  0  0  0  0  0
   -5.6235  -16.6171    0.0000 C   0  0  0  0  0  0  0  0  0  0  0  0
   -7.0330  -16.1041    0.0000 N   0  0  0  0  0  0  0  0  0  0  0  0
   -8.1821  -17.0683    0.0000 C   0  0  0  0  0  0  0  0  0  0  0  0
   -9.5916  -16.5552    0.0000 C   0  0  0  0  0  0  0  0  0  0  0  0
  -10.7407  -17.5194    0.0000 C   0  0  0  0  0  0  0  0  0  0  0  0
  -10.4802  -18.9966    0.0000 C   0  0  0  0  0  0  0  0  0  0  0  0
  -11.6293  -19.9608    0.0000 O   0  0  0  0  0  0  0  0  0  0  0  0
   -9.0707  -19.5097    0.0000 C   0  0  0  0  0  0  0  0  0  0  0  0
   -7.9216  -18.5455    0.0000 C   0  0  0  0  0  0  0  0  0  0  0  0
   -5.3630  -18.0943    0.0000 P   0  0  0  0  0  0  0  0  0  0  0  0
   -3.9534  -17.5813    0.0000 O   0  0  0  0  0  0  0  0  0  0  0  0
   -6.8630  -18.0943    0.0000 O   0  0  0  0  0  0  0  0  0  0  0  0
   -7.6130  -19.3934    0.0000 C   0  0  0  0  0  0  0  0  0  0  0  0
   -9.1130  -19.3934    0.0000 C   0  0  0  0  0  0  0  0  0  0  0  0
   -9.8630  -20.6924    0.0000 C   0  0  0  0  0  0  0  0  0  0  0  0
   -9.1130  -21.9914    0.0000 C   0  0  0  0  0  0  0  0  0  0  0  0
   -7.6130  -21.9914    0.0000 C   0  0  0  0  0  0  0  0  0  0  0  0
   -6.8630  -20.6924    0.0000 C   0  0  0  0  0  0  0  0  0  0  0  0
   -5.3630  -20.6924    0.0000 C   0  0  0  0  0  0  0  0  0  0  0  0
   -4.6130  -21.9914    0.0000 C   0  0  0  0  0  0  0  0  0  0  0  0
   -3.1130  -21.9914    0.0000 C   0  0  0  0  0  0  0  0  0  0  0  0
   -2.3630  -20.6924    0.0000 C   0  0  0  0  0  0  0  0  0  0  0  0
   -3.1130  -19.3934    0.0000 C   0  0  0  0  0  0  0  0  0  0  0  0
   -4.6130  -19.3934    0.0000 C   0  0  0  0  0  0  0  0  0  0  0  0
   -3.0648  -16.1660    0.0000 C   0  0  0  0  0  0  0  0  0  0  0  0
   -1.9158  -15.2018    0.0000 C   0  0  0  0  0  0  0  0  0  0  0  0
   -0.3676  -14.5725    0.0000 O   0  0  0  0  0  0  0  0  0  0  0  0
   -1.8676  -14.5725    0.0000 C   0  0  0  0  0  0  0  0  0  0  0  0
   -2.6176  -13.2734    0.0000 C   0  0  0  0  0  0  0  0  0  0  0  0
   -4.1176  -13.2734    0.0000 C   0  0  0  0  0  0  0  0  0  0  0  0
   -4.8676  -14.5725    0.0000 C   0  0  0  0  0  0  0  0  0  0  0  0
   -6.3676  -14.5725    0.0000 C   0  0  0  0  0  0  0  0  0  0  0  0
   -7.1176  -13.2734    0.0000 N   0  0  0  0  0  0  0  0  0  0  0  0
   -8.6176  -13.2734    0.0000 C   0  0  0  0  0  0  0  0  0  0  0  0
   -9.3676  -11.9744    0.0000 C   0  0  0  0  0  0  0  0  0  0  0  0
  -10.8676  -11.9744    0.0000 C   0  0  0  0  0  0  0  0  0  0  0  0
  -11.6176  -13.2734    0.0000 C   0  0  0  0  0  0  0  0  0  0  0  0
  -13.1176  -13.2734    0.0000 O   0  0  0  0  0  0  0  0  0  0  0  0
  -10.8676  -14.5725    0.0000 C   0  0  0  0  0  0  0  0  0  0  0  0
   -9.3676  -14.5725    0.0000 C   0  0  0  0  0  0  0  0  0  0  0  0
   -7.1176  -15.8715    0.0000 P   0  0  0  0  0  0  0  0  0  0  0  0
   -5.8741  -16.7103    0.0000 O   0  0  0  0  0  0  0  0  0  0  0  0
   -8.2667  -14.9073    0.0000 O   0  0  0  0  0  0  0  0  0  0  0  0
   -9.6763  -15.4203    0.0000 C   0  0  0  0  0  0  0  0  0  0  0  0
  -10.8253  -14.4562    0.0000 C   0  0  0  0  0  0  0  0  0  0  0  0
  -12.2349  -14.9692    0.0000 C   0  0  0  0  0  0  0  0  0  0  0  0
  -12.4953  -16.4464    0.0000 C   0  0  0  0  0  0  0  0  0  0  0  0
  -11.3463  -17.4106    0.0000 C   0  0  0  0  0  0  0  0  0  0  0  0
   -9.9367  -16.8976    0.0000 C   0  0  0  0  0  0  0  0  0  0  0  0
   -8.7877  -17.8617    0.0000 C   0  0  0  0  0  0  0  0  0  0  0  0
   -9.0481  -19.3389    0.0000 C   0  0  0  0  0  0  0  0  0  0  0  0
   -7.8991  -20.3031    0.0000 C   0  0  0  0  0  0  0  0  0  0  0  0
   -6.4895  -19.7901    0.0000 C   0  0  0  0  0  0  0  0  0  0  0  0
   -6.2291  -18.3129    0.0000 C   0  0  0  0  0  0  0  0  0  0  0  0
   -7.3781  -17.3487    0.0000 C   0  0  0  0  0  0  0  0  0  0  0  0
   -4.1176  -15.8715    0.0000 C   0  0  0  0  0  0  0  0  0  0  0  0
   -2.6176  -15.8715    0.0000 C   0  0  0  0  0  0  0  0  0  0  0  0
    0.6428  -11.7962    0.0000 N   0  0  0  0  0  0  0  0  0  0  0  0
   -0.9476   -8.6851    0.0000 C   0  0  0  0  0  0  0  0  0  0  0  0
   -2.4476   -8.6851    0.0000 C   0  0  0  0  0  0  0  0  0  0  0  0
   -5.4476  -11.2832    0.0000 P   0  0  0  0  0  0  0  0  0  0  0  0
   -4.0381  -11.7962    0.0000 O   0  0  0  0  0  0  0  0  0  0  0  0
   -6.5967  -10.3190    0.0000 O   0  0  0  0  0  0  0  0  0  0  0  0
   -8.0062  -10.8320    0.0000 C   0  0  0  0  0  0  0  0  0  0  0  0
   -9.1553   -9.8678    0.0000 C   0  0  0  0  0  0  0  0  0  0  0  0
  -10.5648  -10.3809    0.0000 C   0  0  0  0  0  0  0  0  0  0  0  0
  -10.8253  -11.8581    0.0000 C   0  0  0  0  0  0  0  0  0  0  0  0
   -9.6763  -12.8223    0.0000 C   0  0  0  0  0  0  0  0  0  0  0  0
   -8.2667  -12.3092    0.0000 C   0  0  0  0  0  0  0  0  0  0  0  0
   -7.1176  -13.2734    0.0000 C   0  0  0  0  0  0  0  0  0  0  0  0
   -7.3781  -14.7506    0.0000 C   0  0  0  0  0  0  0  0  0  0  0  0
   -6.2291  -15.7148    0.0000 C   0  0  0  0  0  0  0  0  0  0  0  0
   -4.8195  -15.2018    0.0000 C   0  0  0  0  0  0  0  0  0  0  0  0
   -4.5590  -13.7246    0.0000 C   0  0  0  0  0  0  0  0  0  0  0  0
   -5.7081  -12.7604    0.0000 C   0  0  0  0  0  0  0  0  0  0  0  0
   -7.6976   -9.9841    0.0000 C   0  0  0  0  0  0  0  0  0  0  0  0
   -9.1976   -9.9841    0.0000 C   0  0  0  0  0  0  0  0  0  0  0  0
  1  2  1  0
  2  3  2  0
  2  4  1  0
  4  5  1  0
  5  6  2  0
  6  7  1  0
  7  8  2  0
  8  9  1  0
  9 10  1  0
 10 11  1  0
 11 12  2  0
 12 13  1  0
 13 14  2  0
 14 15  1  0
 15 16  1  0
 16 17  1  0
 17 18  1  0
 18 19  2  0
 19 20  1  0
 20 21  2  0
 21 22  1  0
 22 23  1  0
 23 24  1  0
 24 25  2  0
 25 26  1  0
 26 27  2  0
 27 28  1  0
 27 29  1  0
 29 30  2  0
 22 31  1  0
 31 32  2  0
 31 33  1  0
 33 34  1  0
 34 35  2  0
 35 36  1  0
 36 37  2  0
 37 38  1  0
 38 39  2  0
 39 40  1  0
 40 41  2  0
 41 42  1  0
 42 43  2  0
 43 44  1  0
 44 45  2  0
 21 46  1  0
 46 47  2  0
 16 48  2  0
 48 49  1  0
 49 50  1  0
 50 51  1  0
 51 52  2  0
 52 53  1  0
 53 54  2  0
 54 55  1  0
 55 56  1  0
 56 57  1  0
 57 58  2  0
 58 59  1  0
 59 60  2  0
 60 61  1  0
 60 62  1  0
 62 63  2  0
 55 64  1  0
 64 65  2  0
 64 66  1  0
 66 67  1  0
 67 68  2  0
 68 69  1  0
 69 70  2  0
 70 71  1  0
 71 72  2  0
 72 73  1  0
 73 74  2  0
 74 75  1  0
 75 76  2  0
 76 77  1  0
 77 78  2  0
 54 79  1  0
 79 80  2  0
 49 81  1  0
 81 82  1  0
 82 83  2  0
 83 84  1  0
 84 85  2  0
 85 86  1  0
 86 87  1  0
 87 88  1  0
 88 89  2  0
 89 90  1  0
 90 91  2  0
 91 92  1  0
 91 93  1  0
 93 94  2  0
 86 95  1  0
 95 96  2  0
 95 97  1  0
 97 98  1  0
 98 99  2  0
 99100  1  0
100101  2  0
101102  1  0
102103  2  0
103104  1  0
104105  2  0
105106  1  0
106107  2  0
107108  1  0
108109  2  0
 85110  1  0
110111  2  0
 49112  2  0
112113  1  0
113114  1  0
114115  1  0
115116  2  0
116117  1  0
117118  2  0
118119  1  0
119120  1  0
120121  1  0
121122  2  0
122123  1  0
123124  2  0
124125  1  0
124126  1  0
126127  2  0
119128  1  0
128129  2  0
128130  1  0
130131  1  0
131132  2  0
132133  1  0
133134  2  0
134135  1  0
135136  2  0
136137  1  0
137138  2  0
138139  1  0
139140  2  0
140141  1  0
141142  2  0
118143  1  0
143144  2  0
113145  1  0
145146  1  0
146147  2  0
147148  1  0
148149  2  0
149150  1  0
150151  1  0
151152  1  0
152153  2  0
153154  1  0
154155  2  0
155156  1  0
155157  1  0
157158  2  0
150159  1  0
159160  2  0
159161  1  0
161162  1  0
162163  2  0
163164  1  0
164165  2  0
165166  1  0
166167  2  0
167168  1  0
168169  2  0
169170  1  0
170171  2  0
171172  1  0
172173  2  0
149174  1  0
174175  2  0
113176  2  0
 14177  1  0
177178  2  0
 10179  1  0
179180  2  0
179181  1  0
181182  1  0
182183  2  0
183184  1  0
184185  2  0
185186  1  0
186187  2  0
187188  1  0
188189  2  0
189190  1  0
190191  2  0
191192  1  0
192193  2  0
  8194  1  0
194195  2  0
195  5  1  0
178 11  1  0
193179  1  0
176 16  1  0
187182  1  0
193188  1  0
 47 18  1  0
 80 51  1  0
111 82  1  0
144115  1  0
175146  1  0
 30 24  1  0
 45 31  1  0
 63 57  1  0
 78 64  1  0
 94 88  1  0
109 95  1  0
127121  1  0
142128  1  0
158152  1  0
173159  1  0
 39 34  1  0
 45 40  1  0
 72 67  1  0
 78 73  1  0
103 98  1  0
109104  1  0
136131  1  0
142137  1  0
167162  1  0
173168  1  0
M  END
>  <Candidate_ID>  (34) 
CAND_R2_034

>  <Candidate_Name>  (34) 
CTP-DOPO-OH-acetyl

>  <Parent_Seed_ID>  (34) 
TRAIN_041

>  <Parent_Name>  (34) 
CTP-DOPO

>  <Transformation_Code>  (34) 
OH_acetyl

>  <Design_Family>  (34) 
P-N

>  <Preparation_Type>  (34) 
Additive

>  <Synthesis_Level>  (34) 
C

>  <Parent_Tanimoto_r3>  (34) 
0.8928571428571429

>  <Max_Train_Tanimoto_r3>  (34) 
0.8928571428571429

>  <Risk_Flags>  (34) 
high molecular weight; high DOPO count; exploratory only; excluded from formal screening

$$$$
CAND_R2_035 | CTP-DOPO-OH-acetyl-all
     RDKit          2D

210240  0  0  0  0  0  0  0  0999 V2000
  -13.6976   -7.3861    0.0000 C   0  0  0  0  0  0  0  0  0  0  0  0
  -12.1976   -7.3861    0.0000 C   0  0  0  0  0  0  0  0  0  0  0  0
  -11.4476   -6.0870    0.0000 O   0  0  0  0  0  0  0  0  0  0  0  0
  -11.4476   -8.6851    0.0000 O   0  0  0  0  0  0  0  0  0  0  0  0
   -9.9476   -8.6851    0.0000 C   0  0  0  0  0  0  0  0  0  0  0  0
   -9.1976   -7.3861    0.0000 C   0  0  0  0  0  0  0  0  0  0  0  0
   -7.6976   -7.3861    0.0000 C   0  0  0  0  0  0  0  0  0  0  0  0
   -6.9476   -8.6851    0.0000 C   0  0  0  0  0  0  0  0  0  0  0  0
   -5.4476   -8.6851    0.0000 N   0  0  0  0  0  0  0  0  0  0  0  0
   -4.6976   -9.9841    0.0000 C   0  0  0  0  0  0  0  0  0  0  0  0
   -3.1976   -9.9841    0.0000 C   0  0  0  0  0  0  0  0  0  0  0  0
   -2.4476  -11.2832    0.0000 C   0  0  0  0  0  0  0  0  0  0  0  0
   -0.9476  -11.2832    0.0000 C   0  0  0  0  0  0  0  0  0  0  0  0
   -0.1976   -9.9841    0.0000 C   0  0  0  0  0  0  0  0  0  0  0  0
    1.3024   -9.9841    0.0000 O   0  0  0  0  0  0  0  0  0  0  0  0
    2.0524  -11.2832    0.0000 P   0  0  0  0  0  0  0  0  0  0  0  0
    3.2014  -10.3190    0.0000 O   0  0  0  0  0  0  0  0  0  0  0  0
    2.9410   -8.8418    0.0000 C   0  0  0  0  0  0  0  0  0  0  0  0
    1.5314   -8.3287    0.0000 C   0  0  0  0  0  0  0  0  0  0  0  0
    1.2709   -6.8515    0.0000 C   0  0  0  0  0  0  0  0  0  0  0  0
    2.4200   -5.8874    0.0000 C   0  0  0  0  0  0  0  0  0  0  0  0
    2.1595   -4.4101    0.0000 C   0  0  0  0  0  0  0  0  0  0  0  0
    0.7500   -3.8971    0.0000 N   0  0  0  0  0  0  0  0  0  0  0  0
   -0.3991   -4.8613    0.0000 C   0  0  0  0  0  0  0  0  0  0  0  0
   -0.1386   -6.3385    0.0000 C   0  0  0  0  0  0  0  0  0  0  0  0
   -1.2877   -7.3027    0.0000 C   0  0  0  0  0  0  0  0  0  0  0  0
   -2.6972   -6.7897    0.0000 C   0  0  0  0  0  0  0  0  0  0  0  0
   -3.8463   -7.7538    0.0000 O   0  0  0  0  0  0  0  0  0  0  0  0
   -5.2558   -7.2408    0.0000 C   0  0  0  0  0  0  0  0  0  0  0  0
   -6.4049   -8.2050    0.0000 C   0  0  0  0  0  0  0  0  0  0  0  0
   -5.5163   -5.7636    0.0000 O   0  0  0  0  0  0  0  0  0  0  0  0
   -2.9577   -5.3124    0.0000 C   0  0  0  0  0  0  0  0  0  0  0  0
   -1.8086   -4.3483    0.0000 C   0  0  0  0  0  0  0  0  0  0  0  0
    3.3086   -3.4460    0.0000 P   0  0  0  0  0  0  0  0  0  0  0  0
    4.0586   -4.7450    0.0000 O   0  0  0  0  0  0  0  0  0  0  0  0
    2.1595   -2.4818    0.0000 O   0  0  0  0  0  0  0  0  0  0  0  0
    2.4200   -1.0046    0.0000 C   0  0  0  0  0  0  0  0  0  0  0  0
    1.2709   -0.0404    0.0000 C   0  0  0  0  0  0  0  0  0  0  0  0
    1.5314    1.4368    0.0000 C   0  0  0  0  0  0  0  0  0  0  0  0
    2.9410    1.9499    0.0000 C   0  0  0  0  0  0  0  0  0  0  0  0
    4.0900    0.9857    0.0000 C   0  0  0  0  0  0  0  0  0  0  0  0
    3.8296   -0.4915    0.0000 C   0  0  0  0  0  0  0  0  0  0  0  0
    4.9786   -1.4557    0.0000 C   0  0  0  0  0  0  0  0  0  0  0  0
    6.3882   -0.9427    0.0000 C   0  0  0  0  0  0  0  0  0  0  0  0
    7.5372   -1.9069    0.0000 C   0  0  0  0  0  0  0  0  0  0  0  0
    7.2768   -3.3841    0.0000 C   0  0  0  0  0  0  0  0  0  0  0  0
    5.8672   -3.8971    0.0000 C   0  0  0  0  0  0  0  0  0  0  0  0
    4.7181   -2.9329    0.0000 C   0  0  0  0  0  0  0  0  0  0  0  0
    3.8296   -6.4004    0.0000 C   0  0  0  0  0  0  0  0  0  0  0  0
    4.0900   -7.8776    0.0000 C   0  0  0  0  0  0  0  0  0  0  0  0
    3.2014  -12.2474    0.0000 N   0  0  0  0  0  0  0  0  0  0  0  0
    2.9410  -13.7246    0.0000 P   0  0  0  0  0  0  0  0  0  0  0  0
    3.2014  -15.2018    0.0000 O   0  0  0  0  0  0  0  0  0  0  0  0
    4.6110  -15.7148    0.0000 C   0  0  0  0  0  0  0  0  0  0  0  0
    4.8714  -17.1920    0.0000 C   0  0  0  0  0  0  0  0  0  0  0  0
    6.2810  -17.7050    0.0000 C   0  0  0  0  0  0  0  0  0  0  0  0
    7.4300  -16.7409    0.0000 C   0  0  0  0  0  0  0  0  0  0  0  0
    8.8396  -17.2539    0.0000 C   0  0  0  0  0  0  0  0  0  0  0  0
    9.1001  -18.7311    0.0000 N   0  0  0  0  0  0  0  0  0  0  0  0
   10.5096  -19.2441    0.0000 C   0  0  0  0  0  0  0  0  0  0  0  0
   10.7701  -20.7214    0.0000 C   0  0  0  0  0  0  0  0  0  0  0  0
   12.1796  -21.2344    0.0000 C   0  0  0  0  0  0  0  0  0  0  0  0
   13.3287  -20.2702    0.0000 C   0  0  0  0  0  0  0  0  0  0  0  0
   14.7382  -20.7832    0.0000 O   0  0  0  0  0  0  0  0  0  0  0  0
   14.9987  -22.2604    0.0000 C   0  0  0  0  0  0  0  0  0  0  0  0
   16.4082  -22.7735    0.0000 C   0  0  0  0  0  0  0  0  0  0  0  0
   13.8496  -23.2246    0.0000 O   0  0  0  0  0  0  0  0  0  0  0  0
   13.0682  -18.7930    0.0000 C   0  0  0  0  0  0  0  0  0  0  0  0
   11.6587  -18.2800    0.0000 C   0  0  0  0  0  0  0  0  0  0  0  0
    9.9887  -16.2897    0.0000 P   0  0  0  0  0  0  0  0  0  0  0  0
   10.7387  -17.5888    0.0000 O   0  0  0  0  0  0  0  0  0  0  0  0
    8.8396  -15.3255    0.0000 O   0  0  0  0  0  0  0  0  0  0  0  0
    9.1001  -13.8483    0.0000 C   0  0  0  0  0  0  0  0  0  0  0  0
    7.9510  -12.8841    0.0000 C   0  0  0  0  0  0  0  0  0  0  0  0
    8.2115  -11.4069    0.0000 C   0  0  0  0  0  0  0  0  0  0  0  0
    9.6210  -10.8939    0.0000 C   0  0  0  0  0  0  0  0  0  0  0  0
   10.7701  -11.8581    0.0000 C   0  0  0  0  0  0  0  0  0  0  0  0
   10.5096  -13.3353    0.0000 C   0  0  0  0  0  0  0  0  0  0  0  0
   11.6587  -14.2995    0.0000 C   0  0  0  0  0  0  0  0  0  0  0  0
   13.0682  -13.7864    0.0000 C   0  0  0  0  0  0  0  0  0  0  0  0
   14.2173  -14.7506    0.0000 C   0  0  0  0  0  0  0  0  0  0  0  0
   13.9568  -16.2278    0.0000 C   0  0  0  0  0  0  0  0  0  0  0  0
   12.5473  -16.7409    0.0000 C   0  0  0  0  0  0  0  0  0  0  0  0
   11.3982  -15.7767    0.0000 C   0  0  0  0  0  0  0  0  0  0  0  0
    7.1696  -15.2637    0.0000 C   0  0  0  0  0  0  0  0  0  0  0  0
    5.7600  -14.7506    0.0000 C   0  0  0  0  0  0  0  0  0  0  0  0
    4.4410  -13.7246    0.0000 O   0  0  0  0  0  0  0  0  0  0  0  0
    5.1910  -12.4255    0.0000 C   0  0  0  0  0  0  0  0  0  0  0  0
    4.4410  -11.1265    0.0000 C   0  0  0  0  0  0  0  0  0  0  0  0
    5.1910   -9.8275    0.0000 C   0  0  0  0  0  0  0  0  0  0  0  0
    6.6910   -9.8275    0.0000 C   0  0  0  0  0  0  0  0  0  0  0  0
    7.4410   -8.5284    0.0000 C   0  0  0  0  0  0  0  0  0  0  0  0
    6.6910   -7.2294    0.0000 N   0  0  0  0  0  0  0  0  0  0  0  0
    7.4410   -5.9303    0.0000 C   0  0  0  0  0  0  0  0  0  0  0  0
    6.6910   -4.6313    0.0000 C   0  0  0  0  0  0  0  0  0  0  0  0
    7.4410   -3.3323    0.0000 C   0  0  0  0  0  0  0  0  0  0  0  0
    8.9410   -3.3323    0.0000 C   0  0  0  0  0  0  0  0  0  0  0  0
    9.6910   -2.0332    0.0000 O   0  0  0  0  0  0  0  0  0  0  0  0
    8.9410   -0.7342    0.0000 C   0  0  0  0  0  0  0  0  0  0  0  0
    9.6910    0.5649    0.0000 C   0  0  0  0  0  0  0  0  0  0  0  0
    7.4410   -0.7342    0.0000 O   0  0  0  0  0  0  0  0  0  0  0  0
    9.6910   -4.6313    0.0000 C   0  0  0  0  0  0  0  0  0  0  0  0
    8.9410   -5.9303    0.0000 C   0  0  0  0  0  0  0  0  0  0  0  0
    8.9410   -8.5284    0.0000 P   0  0  0  0  0  0  0  0  0  0  0  0
    8.6805  -10.0056    0.0000 O   0  0  0  0  0  0  0  0  0  0  0  0
    8.6805   -7.0512    0.0000 O   0  0  0  0  0  0  0  0  0  0  0  0
    9.8296   -6.0870    0.0000 C   0  0  0  0  0  0  0  0  0  0  0  0
    9.5691   -4.6098    0.0000 C   0  0  0  0  0  0  0  0  0  0  0  0
   10.7181   -3.6456    0.0000 C   0  0  0  0  0  0  0  0  0  0  0  0
   12.1277   -4.1587    0.0000 C   0  0  0  0  0  0  0  0  0  0  0  0
   12.3882   -5.6359    0.0000 C   0  0  0  0  0  0  0  0  0  0  0  0
   11.2391   -6.6001    0.0000 C   0  0  0  0  0  0  0  0  0  0  0  0
   11.4996   -8.0773    0.0000 C   0  0  0  0  0  0  0  0  0  0  0  0
   12.9091   -8.5903    0.0000 C   0  0  0  0  0  0  0  0  0  0  0  0
   13.1696  -10.0675    0.0000 C   0  0  0  0  0  0  0  0  0  0  0  0
   12.0205  -11.0317    0.0000 C   0  0  0  0  0  0  0  0  0  0  0  0
   10.6110  -10.5187    0.0000 C   0  0  0  0  0  0  0  0  0  0  0  0
   10.3505   -9.0414    0.0000 C   0  0  0  0  0  0  0  0  0  0  0  0
    7.4410  -11.1265    0.0000 C   0  0  0  0  0  0  0  0  0  0  0  0
    6.6910  -12.4255    0.0000 C   0  0  0  0  0  0  0  0  0  0  0  0
    1.5314  -14.2376    0.0000 N   0  0  0  0  0  0  0  0  0  0  0  0
    0.3824  -13.2734    0.0000 P   0  0  0  0  0  0  0  0  0  0  0  0
   -1.0272  -12.7604    0.0000 O   0  0  0  0  0  0  0  0  0  0  0  0
   -2.1763  -13.7246    0.0000 C   0  0  0  0  0  0  0  0  0  0  0  0
   -3.5858  -13.2115    0.0000 C   0  0  0  0  0  0  0  0  0  0  0  0
   -4.7349  -14.1757    0.0000 C   0  0  0  0  0  0  0  0  0  0  0  0
   -4.4744  -15.6529    0.0000 C   0  0  0  0  0  0  0  0  0  0  0  0
   -5.6235  -16.6171    0.0000 C   0  0  0  0  0  0  0  0  0  0  0  0
   -7.0330  -16.1041    0.0000 N   0  0  0  0  0  0  0  0  0  0  0  0
   -8.1821  -17.0683    0.0000 C   0  0  0  0  0  0  0  0  0  0  0  0
   -9.5916  -16.5552    0.0000 C   0  0  0  0  0  0  0  0  0  0  0  0
  -10.7407  -17.5194    0.0000 C   0  0  0  0  0  0  0  0  0  0  0  0
  -10.4802  -18.9966    0.0000 C   0  0  0  0  0  0  0  0  0  0  0  0
  -11.6293  -19.9608    0.0000 O   0  0  0  0  0  0  0  0  0  0  0  0
  -13.0388  -19.4478    0.0000 C   0  0  0  0  0  0  0  0  0  0  0  0
  -14.1879  -20.4120    0.0000 C   0  0  0  0  0  0  0  0  0  0  0  0
  -13.2993  -17.9706    0.0000 O   0  0  0  0  0  0  0  0  0  0  0  0
   -9.0707  -19.5097    0.0000 C   0  0  0  0  0  0  0  0  0  0  0  0
   -7.9216  -18.5455    0.0000 C   0  0  0  0  0  0  0  0  0  0  0  0
   -5.3630  -18.0943    0.0000 P   0  0  0  0  0  0  0  0  0  0  0  0
   -3.9534  -17.5813    0.0000 O   0  0  0  0  0  0  0  0  0  0  0  0
   -6.8630  -18.0943    0.0000 O   0  0  0  0  0  0  0  0  0  0  0  0
   -7.6130  -19.3934    0.0000 C   0  0  0  0  0  0  0  0  0  0  0  0
   -9.1130  -19.3934    0.0000 C   0  0  0  0  0  0  0  0  0  0  0  0
   -9.8630  -20.6924    0.0000 C   0  0  0  0  0  0  0  0  0  0  0  0
   -9.1130  -21.9914    0.0000 C   0  0  0  0  0  0  0  0  0  0  0  0
   -7.6130  -21.9914    0.0000 C   0  0  0  0  0  0  0  0  0  0  0  0
   -6.8630  -20.6924    0.0000 C   0  0  0  0  0  0  0  0  0  0  0  0
   -5.3630  -20.6924    0.0000 C   0  0  0  0  0  0  0  0  0  0  0  0
   -4.6130  -21.9914    0.0000 C   0  0  0  0  0  0  0  0  0  0  0  0
   -3.1130  -21.9914    0.0000 C   0  0  0  0  0  0  0  0  0  0  0  0
   -2.3630  -20.6924    0.0000 C   0  0  0  0  0  0  0  0  0  0  0  0
   -3.1130  -19.3934    0.0000 C   0  0  0  0  0  0  0  0  0  0  0  0
   -4.6130  -19.3934    0.0000 C   0  0  0  0  0  0  0  0  0  0  0  0
   -3.0648  -16.1660    0.0000 C   0  0  0  0  0  0  0  0  0  0  0  0
   -1.9158  -15.2018    0.0000 C   0  0  0  0  0  0  0  0  0  0  0  0
   -0.3676  -14.5725    0.0000 O   0  0  0  0  0  0  0  0  0  0  0  0
   -1.8676  -14.5725    0.0000 C   0  0  0  0  0  0  0  0  0  0  0  0
   -2.6176  -13.2734    0.0000 C   0  0  0  0  0  0  0  0  0  0  0  0
   -4.1176  -13.2734    0.0000 C   0  0  0  0  0  0  0  0  0  0  0  0
   -4.8676  -14.5725    0.0000 C   0  0  0  0  0  0  0  0  0  0  0  0
   -6.3676  -14.5725    0.0000 C   0  0  0  0  0  0  0  0  0  0  0  0
   -7.1176  -13.2734    0.0000 N   0  0  0  0  0  0  0  0  0  0  0  0
   -8.6176  -13.2734    0.0000 C   0  0  0  0  0  0  0  0  0  0  0  0
   -9.3676  -11.9744    0.0000 C   0  0  0  0  0  0  0  0  0  0  0  0
  -10.8676  -11.9744    0.0000 C   0  0  0  0  0  0  0  0  0  0  0  0
  -11.6176  -13.2734    0.0000 C   0  0  0  0  0  0  0  0  0  0  0  0
  -13.1176  -13.2734    0.0000 O   0  0  0  0  0  0  0  0  0  0  0  0
  -13.8676  -11.9744    0.0000 C   0  0  0  0  0  0  0  0  0  0  0  0
  -15.3676  -11.9744    0.0000 C   0  0  0  0  0  0  0  0  0  0  0  0
  -13.1176  -10.6753    0.0000 O   0  0  0  0  0  0  0  0  0  0  0  0
  -10.8676  -14.5725    0.0000 C   0  0  0  0  0  0  0  0  0  0  0  0
   -9.3676  -14.5725    0.0000 C   0  0  0  0  0  0  0  0  0  0  0  0
   -7.1176  -15.8715    0.0000 P   0  0  0  0  0  0  0  0  0  0  0  0
   -5.8741  -16.7103    0.0000 O   0  0  0  0  0  0  0  0  0  0  0  0
   -8.2667  -14.9073    0.0000 O   0  0  0  0  0  0  0  0  0  0  0  0
   -9.6763  -15.4203    0.0000 C   0  0  0  0  0  0  0  0  0  0  0  0
  -10.8253  -14.4562    0.0000 C   0  0  0  0  0  0  0  0  0  0  0  0
  -12.2349  -14.9692    0.0000 C   0  0  0  0  0  0  0  0  0  0  0  0
  -12.4953  -16.4464    0.0000 C   0  0  0  0  0  0  0  0  0  0  0  0
  -11.3463  -17.4106    0.0000 C   0  0  0  0  0  0  0  0  0  0  0  0
   -9.9367  -16.8976    0.0000 C   0  0  0  0  0  0  0  0  0  0  0  0
   -8.7877  -17.8617    0.0000 C   0  0  0  0  0  0  0  0  0  0  0  0
   -9.0481  -19.3389    0.0000 C   0  0  0  0  0  0  0  0  0  0  0  0
   -7.8991  -20.3031    0.0000 C   0  0  0  0  0  0  0  0  0  0  0  0
   -6.4895  -19.7901    0.0000 C   0  0  0  0  0  0  0  0  0  0  0  0
   -6.2291  -18.3129    0.0000 C   0  0  0  0  0  0  0  0  0  0  0  0
   -7.3781  -17.3487    0.0000 C   0  0  0  0  0  0  0  0  0  0  0  0
   -4.1176  -15.8715    0.0000 C   0  0  0  0  0  0  0  0  0  0  0  0
   -2.6176  -15.8715    0.0000 C   0  0  0  0  0  0  0  0  0  0  0  0
    0.6428  -11.7962    0.0000 N   0  0  0  0  0  0  0  0  0  0  0  0
   -0.9476   -8.6851    0.0000 C   0  0  0  0  0  0  0  0  0  0  0  0
   -2.4476   -8.6851    0.0000 C   0  0  0  0  0  0  0  0  0  0  0  0
   -5.4476  -11.2832    0.0000 P   0  0  0  0  0  0  0  0  0  0  0  0
   -4.0381  -11.7962    0.0000 O   0  0  0  0  0  0  0  0  0  0  0  0
   -6.5967  -10.3190    0.0000 O   0  0  0  0  0  0  0  0  0  0  0  0
   -8.0062  -10.8320    0.0000 C   0  0  0  0  0  0  0  0  0  0  0  0
   -9.1553   -9.8678    0.0000 C   0  0  0  0  0  0  0  0  0  0  0  0
  -10.5648  -10.3809    0.0000 C   0  0  0  0  0  0  0  0  0  0  0  0
  -10.8253  -11.8581    0.0000 C   0  0  0  0  0  0  0  0  0  0  0  0
   -9.6763  -12.8223    0.0000 C   0  0  0  0  0  0  0  0  0  0  0  0
   -8.2667  -12.3092    0.0000 C   0  0  0  0  0  0  0  0  0  0  0  0
   -7.1176  -13.2734    0.0000 C   0  0  0  0  0  0  0  0  0  0  0  0
   -7.3781  -14.7506    0.0000 C   0  0  0  0  0  0  0  0  0  0  0  0
   -6.2291  -15.7148    0.0000 C   0  0  0  0  0  0  0  0  0  0  0  0
   -4.8195  -15.2018    0.0000 C   0  0  0  0  0  0  0  0  0  0  0  0
   -4.5590  -13.7246    0.0000 C   0  0  0  0  0  0  0  0  0  0  0  0
   -5.7081  -12.7604    0.0000 C   0  0  0  0  0  0  0  0  0  0  0  0
   -7.6976   -9.9841    0.0000 C   0  0  0  0  0  0  0  0  0  0  0  0
   -9.1976   -9.9841    0.0000 C   0  0  0  0  0  0  0  0  0  0  0  0
  1  2  1  0
  2  3  2  0
  2  4  1  0
  4  5  1  0
  5  6  2  0
  6  7  1  0
  7  8  2  0
  8  9  1  0
  9 10  1  0
 10 11  1  0
 11 12  2  0
 12 13  1  0
 13 14  2  0
 14 15  1  0
 15 16  1  0
 16 17  1  0
 17 18  1  0
 18 19  2  0
 19 20  1  0
 20 21  2  0
 21 22  1  0
 22 23  1  0
 23 24  1  0
 24 25  2  0
 25 26  1  0
 26 27  2  0
 27 28  1  0
 28 29  1  0
 29 30  1  0
 29 31  2  0
 27 32  1  0
 32 33  2  0
 22 34  1  0
 34 35  2  0
 34 36  1  0
 36 37  1  0
 37 38  2  0
 38 39  1  0
 39 40  2  0
 40 41  1  0
 41 42  2  0
 42 43  1  0
 43 44  2  0
 44 45  1  0
 45 46  2  0
 46 47  1  0
 47 48  2  0
 21 49  1  0
 49 50  2  0
 16 51  2  0
 51 52  1  0
 52 53  1  0
 53 54  1  0
 54 55  2  0
 55 56  1  0
 56 57  2  0
 57 58  1  0
 58 59  1  0
 59 60  1  0
 60 61  2  0
 61 62  1  0
 62 63  2  0
 63 64  1  0
 64 65  1  0
 65 66  1  0
 65 67  2  0
 63 68  1  0
 68 69  2  0
 58 70  1  0
 70 71  2  0
 70 72  1  0
 72 73  1  0
 73 74  2  0
 74 75  1  0
 75 76  2  0
 76 77  1  0
 77 78  2  0
 78 79  1  0
 79 80  2  0
 80 81  1  0
 81 82  2  0
 82 83  1  0
 83 84  2  0
 57 85  1  0
 85 86  2  0
 52 87  1  0
 87 88  1  0
 88 89  2  0
 89 90  1  0
 90 91  2  0
 91 92  1  0
 92 93  1  0
 93 94  1  0
 94 95  2  0
 95 96  1  0
 96 97  2  0
 97 98  1  0
 98 99  1  0
 99100  1  0
 99101  2  0
 97102  1  0
102103  2  0
 92104  1  0
104105  2  0
104106  1  0
106107  1  0
107108  2  0
108109  1  0
109110  2  0
110111  1  0
111112  2  0
112113  1  0
113114  2  0
114115  1  0
115116  2  0
116117  1  0
117118  2  0
 91119  1  0
119120  2  0
 52121  2  0
121122  1  0
122123  1  0
123124  1  0
124125  2  0
125126  1  0
126127  2  0
127128  1  0
128129  1  0
129130  1  0
130131  2  0
131132  1  0
132133  2  0
133134  1  0
134135  1  0
135136  1  0
135137  2  0
133138  1  0
138139  2  0
128140  1  0
140141  2  0
140142  1  0
142143  1  0
143144  2  0
144145  1  0
145146  2  0
146147  1  0
147148  2  0
148149  1  0
149150  2  0
150151  1  0
151152  2  0
152153  1  0
153154  2  0
127155  1  0
155156  2  0
122157  1  0
157158  1  0
158159  2  0
159160  1  0
160161  2  0
161162  1  0
162163  1  0
163164  1  0
164165  2  0
165166  1  0
166167  2  0
167168  1  0
168169  1  0
169170  1  0
169171  2  0
167172  1  0
172173  2  0
162174  1  0
174175  2  0
174176  1  0
176177  1  0
177178  2  0
178179  1  0
179180  2  0
180181  1  0
181182  2  0
182183  1  0
183184  2  0
184185  1  0
185186  2  0
186187  1  0
187188  2  0
161189  1  0
189190  2  0
122191  2  0
 14192  1  0
192193  2  0
 10194  1  0
194195  2  0
194196  1  0
196197  1  0
197198  2  0
198199  1  0
199200  2  0
200201  1  0
201202  2  0
202203  1  0
203204  2  0
204205  1  0
205206  2  0
206207  1  0
207208  2  0
  8209  1  0
209210  2  0
210  5  1  0
193 11  1  0
208194  1  0
191 16  1  0
202197  1  0
208203  1  0
 50 18  1  0
 86 54  1  0
120 88  1  0
156124  1  0
190158  1  0
 33 24  1  0
 48 34  1  0
 69 60  1  0
 84 70  1  0
103 94  1  0
118104  1  0
139130  1  0
154140  1  0
173164  1  0
188174  1  0
 42 37  1  0
 48 43  1  0
 78 73  1  0
 84 79  1  0
112107  1  0
118113  1  0
148143  1  0
154149  1  0
182177  1  0
188183  1  0
M  END
>  <Candidate_ID>  (35) 
CAND_R2_035

>  <Candidate_Name>  (35) 
CTP-DOPO-OH-acetyl-all

>  <Parent_Seed_ID>  (35) 
TRAIN_041

>  <Parent_Name>  (35) 
CTP-DOPO

>  <Transformation_Code>  (35) 
OH_acetyl_all

>  <Design_Family>  (35) 
P-N

>  <Preparation_Type>  (35) 
Additive

>  <Synthesis_Level>  (35) 
C

>  <Parent_Tanimoto_r3>  (35) 
0.8214285714285714

>  <Max_Train_Tanimoto_r3>  (35) 
0.8214285714285714

>  <Risk_Flags>  (35) 
high molecular weight; high DOPO count; exploratory only; excluded from formal screening

$$$$
CAND_R2_036 | CTP-DOPO-OH-allyl
     RDKit          2D

195225  0  0  0  0  0  0  0  0999 V2000
  -14.4476   -6.0870    0.0000 C   0  0  0  0  0  0  0  0  0  0  0  0
  -13.6976   -7.3861    0.0000 C   0  0  0  0  0  0  0  0  0  0  0  0
  -12.1976   -7.3861    0.0000 C   0  0  0  0  0  0  0  0  0  0  0  0
  -11.4476   -8.6851    0.0000 O   0  0  0  0  0  0  0  0  0  0  0  0
   -9.9476   -8.6851    0.0000 C   0  0  0  0  0  0  0  0  0  0  0  0
   -9.1976   -7.3861    0.0000 C   0  0  0  0  0  0  0  0  0  0  0  0
   -7.6976   -7.3861    0.0000 C   0  0  0  0  0  0  0  0  0  0  0  0
   -6.9476   -8.6851    0.0000 C   0  0  0  0  0  0  0  0  0  0  0  0
   -5.4476   -8.6851    0.0000 N   0  0  0  0  0  0  0  0  0  0  0  0
   -4.6976   -9.9841    0.0000 C   0  0  0  0  0  0  0  0  0  0  0  0
   -3.1976   -9.9841    0.0000 C   0  0  0  0  0  0  0  0  0  0  0  0
   -2.4476  -11.2832    0.0000 C   0  0  0  0  0  0  0  0  0  0  0  0
   -0.9476  -11.2832    0.0000 C   0  0  0  0  0  0  0  0  0  0  0  0
   -0.1976   -9.9841    0.0000 C   0  0  0  0  0  0  0  0  0  0  0  0
    1.3024   -9.9841    0.0000 O   0  0  0  0  0  0  0  0  0  0  0  0
    2.0524  -11.2832    0.0000 P   0  0  0  0  0  0  0  0  0  0  0  0
    3.2014  -10.3190    0.0000 O   0  0  0  0  0  0  0  0  0  0  0  0
    2.9410   -8.8418    0.0000 C   0  0  0  0  0  0  0  0  0  0  0  0
    1.5314   -8.3287    0.0000 C   0  0  0  0  0  0  0  0  0  0  0  0
    1.2709   -6.8515    0.0000 C   0  0  0  0  0  0  0  0  0  0  0  0
    2.4200   -5.8874    0.0000 C   0  0  0  0  0  0  0  0  0  0  0  0
    2.1595   -4.4101    0.0000 C   0  0  0  0  0  0  0  0  0  0  0  0
    0.7500   -3.8971    0.0000 N   0  0  0  0  0  0  0  0  0  0  0  0
   -0.3991   -4.8613    0.0000 C   0  0  0  0  0  0  0  0  0  0  0  0
   -0.1386   -6.3385    0.0000 C   0  0  0  0  0  0  0  0  0  0  0  0
   -1.2877   -7.3027    0.0000 C   0  0  0  0  0  0  0  0  0  0  0  0
   -2.6972   -6.7897    0.0000 C   0  0  0  0  0  0  0  0  0  0  0  0
   -3.8463   -7.7538    0.0000 O   0  0  0  0  0  0  0  0  0  0  0  0
   -2.9577   -5.3124    0.0000 C   0  0  0  0  0  0  0  0  0  0  0  0
   -1.8086   -4.3483    0.0000 C   0  0  0  0  0  0  0  0  0  0  0  0
    3.3086   -3.4460    0.0000 P   0  0  0  0  0  0  0  0  0  0  0  0
    4.0586   -4.7450    0.0000 O   0  0  0  0  0  0  0  0  0  0  0  0
    2.1595   -2.4818    0.0000 O   0  0  0  0  0  0  0  0  0  0  0  0
    2.4200   -1.0046    0.0000 C   0  0  0  0  0  0  0  0  0  0  0  0
    1.2709   -0.0404    0.0000 C   0  0  0  0  0  0  0  0  0  0  0  0
    1.5314    1.4368    0.0000 C   0  0  0  0  0  0  0  0  0  0  0  0
    2.9410    1.9499    0.0000 C   0  0  0  0  0  0  0  0  0  0  0  0
    4.0900    0.9857    0.0000 C   0  0  0  0  0  0  0  0  0  0  0  0
    3.8296   -0.4915    0.0000 C   0  0  0  0  0  0  0  0  0  0  0  0
    4.9786   -1.4557    0.0000 C   0  0  0  0  0  0  0  0  0  0  0  0
    6.3882   -0.9427    0.0000 C   0  0  0  0  0  0  0  0  0  0  0  0
    7.5372   -1.9069    0.0000 C   0  0  0  0  0  0  0  0  0  0  0  0
    7.2768   -3.3841    0.0000 C   0  0  0  0  0  0  0  0  0  0  0  0
    5.8672   -3.8971    0.0000 C   0  0  0  0  0  0  0  0  0  0  0  0
    4.7181   -2.9329    0.0000 C   0  0  0  0  0  0  0  0  0  0  0  0
    3.8296   -6.4004    0.0000 C   0  0  0  0  0  0  0  0  0  0  0  0
    4.0900   -7.8776    0.0000 C   0  0  0  0  0  0  0  0  0  0  0  0
    3.2014  -12.2474    0.0000 N   0  0  0  0  0  0  0  0  0  0  0  0
    2.9410  -13.7246    0.0000 P   0  0  0  0  0  0  0  0  0  0  0  0
    3.2014  -15.2018    0.0000 O   0  0  0  0  0  0  0  0  0  0  0  0
    4.6110  -15.7148    0.0000 C   0  0  0  0  0  0  0  0  0  0  0  0
    4.8714  -17.1920    0.0000 C   0  0  0  0  0  0  0  0  0  0  0  0
    6.2810  -17.7050    0.0000 C   0  0  0  0  0  0  0  0  0  0  0  0
    7.4300  -16.7409    0.0000 C   0  0  0  0  0  0  0  0  0  0  0  0
    8.8396  -17.2539    0.0000 C   0  0  0  0  0  0  0  0  0  0  0  0
    9.1001  -18.7311    0.0000 N   0  0  0  0  0  0  0  0  0  0  0  0
   10.5096  -19.2441    0.0000 C   0  0  0  0  0  0  0  0  0  0  0  0
   10.7701  -20.7214    0.0000 C   0  0  0  0  0  0  0  0  0  0  0  0
   12.1796  -21.2344    0.0000 C   0  0  0  0  0  0  0  0  0  0  0  0
   13.3287  -20.2702    0.0000 C   0  0  0  0  0  0  0  0  0  0  0  0
   14.7382  -20.7832    0.0000 O   0  0  0  0  0  0  0  0  0  0  0  0
   13.0682  -18.7930    0.0000 C   0  0  0  0  0  0  0  0  0  0  0  0
   11.6587  -18.2800    0.0000 C   0  0  0  0  0  0  0  0  0  0  0  0
    9.9887  -16.2897    0.0000 P   0  0  0  0  0  0  0  0  0  0  0  0
   10.7387  -17.5888    0.0000 O   0  0  0  0  0  0  0  0  0  0  0  0
    8.8396  -15.3255    0.0000 O   0  0  0  0  0  0  0  0  0  0  0  0
    9.1001  -13.8483    0.0000 C   0  0  0  0  0  0  0  0  0  0  0  0
    7.9510  -12.8841    0.0000 C   0  0  0  0  0  0  0  0  0  0  0  0
    8.2115  -11.4069    0.0000 C   0  0  0  0  0  0  0  0  0  0  0  0
    9.6210  -10.8939    0.0000 C   0  0  0  0  0  0  0  0  0  0  0  0
   10.7701  -11.8581    0.0000 C   0  0  0  0  0  0  0  0  0  0  0  0
   10.5096  -13.3353    0.0000 C   0  0  0  0  0  0  0  0  0  0  0  0
   11.6587  -14.2995    0.0000 C   0  0  0  0  0  0  0  0  0  0  0  0
   13.0682  -13.7864    0.0000 C   0  0  0  0  0  0  0  0  0  0  0  0
   14.2173  -14.7506    0.0000 C   0  0  0  0  0  0  0  0  0  0  0  0
   13.9568  -16.2278    0.0000 C   0  0  0  0  0  0  0  0  0  0  0  0
   12.5473  -16.7409    0.0000 C   0  0  0  0  0  0  0  0  0  0  0  0
   11.3982  -15.7767    0.0000 C   0  0  0  0  0  0  0  0  0  0  0  0
    7.1696  -15.2637    0.0000 C   0  0  0  0  0  0  0  0  0  0  0  0
    5.7600  -14.7506    0.0000 C   0  0  0  0  0  0  0  0  0  0  0  0
    4.4410  -13.7246    0.0000 O   0  0  0  0  0  0  0  0  0  0  0  0
    5.1910  -12.4255    0.0000 C   0  0  0  0  0  0  0  0  0  0  0  0
    4.4410  -11.1265    0.0000 C   0  0  0  0  0  0  0  0  0  0  0  0
    5.1910   -9.8275    0.0000 C   0  0  0  0  0  0  0  0  0  0  0  0
    6.6910   -9.8275    0.0000 C   0  0  0  0  0  0  0  0  0  0  0  0
    7.4410   -8.5284    0.0000 C   0  0  0  0  0  0  0  0  0  0  0  0
    6.6910   -7.2294    0.0000 N   0  0  0  0  0  0  0  0  0  0  0  0
    5.1910   -7.2294    0.0000 C   0  0  0  0  0  0  0  0  0  0  0  0
    4.4410   -5.9303    0.0000 C   0  0  0  0  0  0  0  0  0  0  0  0
    2.9410   -5.9303    0.0000 C   0  0  0  0  0  0  0  0  0  0  0  0
    2.1910   -7.2294    0.0000 C   0  0  0  0  0  0  0  0  0  0  0  0
    0.7355   -6.8664    0.0000 O   0  0  0  0  0  0  0  0  0  0  0  0
    2.9410   -8.5284    0.0000 C   0  0  0  0  0  0  0  0  0  0  0  0
    4.4410   -8.5284    0.0000 C   0  0  0  0  0  0  0  0  0  0  0  0
    8.9410   -8.5284    0.0000 P   0  0  0  0  0  0  0  0  0  0  0  0
    8.6805  -10.0056    0.0000 O   0  0  0  0  0  0  0  0  0  0  0  0
    8.6805   -7.0512    0.0000 O   0  0  0  0  0  0  0  0  0  0  0  0
    9.8296   -6.0870    0.0000 C   0  0  0  0  0  0  0  0  0  0  0  0
    9.5691   -4.6098    0.0000 C   0  0  0  0  0  0  0  0  0  0  0  0
   10.7181   -3.6456    0.0000 C   0  0  0  0  0  0  0  0  0  0  0  0
   12.1277   -4.1587    0.0000 C   0  0  0  0  0  0  0  0  0  0  0  0
   12.3882   -5.6359    0.0000 C   0  0  0  0  0  0  0  0  0  0  0  0
   11.2391   -6.6001    0.0000 C   0  0  0  0  0  0  0  0  0  0  0  0
   11.4996   -8.0773    0.0000 C   0  0  0  0  0  0  0  0  0  0  0  0
   12.9091   -8.5903    0.0000 C   0  0  0  0  0  0  0  0  0  0  0  0
   13.1696  -10.0675    0.0000 C   0  0  0  0  0  0  0  0  0  0  0  0
   12.0205  -11.0317    0.0000 C   0  0  0  0  0  0  0  0  0  0  0  0
   10.6110  -10.5187    0.0000 C   0  0  0  0  0  0  0  0  0  0  0  0
   10.3505   -9.0414    0.0000 C   0  0  0  0  0  0  0  0  0  0  0  0
    7.4410  -11.1265    0.0000 C   0  0  0  0  0  0  0  0  0  0  0  0
    6.6910  -12.4255    0.0000 C   0  0  0  0  0  0  0  0  0  0  0  0
    1.5314  -14.2376    0.0000 N   0  0  0  0  0  0  0  0  0  0  0  0
    0.3824  -13.2734    0.0000 P   0  0  0  0  0  0  0  0  0  0  0  0
   -1.0272  -12.7604    0.0000 O   0  0  0  0  0  0  0  0  0  0  0  0
   -2.1763  -13.7246    0.0000 C   0  0  0  0  0  0  0  0  0  0  0  0
   -3.5858  -13.2115    0.0000 C   0  0  0  0  0  0  0  0  0  0  0  0
   -4.7349  -14.1757    0.0000 C   0  0  0  0  0  0  0  0  0  0  0  0
   -4.4744  -15.6529    0.0000 C   0  0  0  0  0  0  0  0  0  0  0  0
   -5.6235  -16.6171    0.0000 C   0  0  0  0  0  0  0  0  0  0  0  0
   -7.0330  -16.1041    0.0000 N   0  0  0  0  0  0  0  0  0  0  0  0
   -8.1821  -17.0683    0.0000 C   0  0  0  0  0  0  0  0  0  0  0  0
   -9.5916  -16.5552    0.0000 C   0  0  0  0  0  0  0  0  0  0  0  0
  -10.7407  -17.5194    0.0000 C   0  0  0  0  0  0  0  0  0  0  0  0
  -10.4802  -18.9966    0.0000 C   0  0  0  0  0  0  0  0  0  0  0  0
  -11.6293  -19.9608    0.0000 O   0  0  0  0  0  0  0  0  0  0  0  0
   -9.0707  -19.5097    0.0000 C   0  0  0  0  0  0  0  0  0  0  0  0
   -7.9216  -18.5455    0.0000 C   0  0  0  0  0  0  0  0  0  0  0  0
   -5.3630  -18.0943    0.0000 P   0  0  0  0  0  0  0  0  0  0  0  0
   -3.9534  -17.5813    0.0000 O   0  0  0  0  0  0  0  0  0  0  0  0
   -6.8630  -18.0943    0.0000 O   0  0  0  0  0  0  0  0  0  0  0  0
   -7.6130  -19.3934    0.0000 C   0  0  0  0  0  0  0  0  0  0  0  0
   -9.1130  -19.3934    0.0000 C   0  0  0  0  0  0  0  0  0  0  0  0
   -9.8630  -20.6924    0.0000 C   0  0  0  0  0  0  0  0  0  0  0  0
   -9.1130  -21.9914    0.0000 C   0  0  0  0  0  0  0  0  0  0  0  0
   -7.6130  -21.9914    0.0000 C   0  0  0  0  0  0  0  0  0  0  0  0
   -6.8630  -20.6924    0.0000 C   0  0  0  0  0  0  0  0  0  0  0  0
   -5.3630  -20.6924    0.0000 C   0  0  0  0  0  0  0  0  0  0  0  0
   -4.6130  -21.9914    0.0000 C   0  0  0  0  0  0  0  0  0  0  0  0
   -3.1130  -21.9914    0.0000 C   0  0  0  0  0  0  0  0  0  0  0  0
   -2.3630  -20.6924    0.0000 C   0  0  0  0  0  0  0  0  0  0  0  0
   -3.1130  -19.3934    0.0000 C   0  0  0  0  0  0  0  0  0  0  0  0
   -4.6130  -19.3934    0.0000 C   0  0  0  0  0  0  0  0  0  0  0  0
   -3.0648  -16.1660    0.0000 C   0  0  0  0  0  0  0  0  0  0  0  0
   -1.9158  -15.2018    0.0000 C   0  0  0  0  0  0  0  0  0  0  0  0
   -0.3676  -14.5725    0.0000 O   0  0  0  0  0  0  0  0  0  0  0  0
   -1.8676  -14.5725    0.0000 C   0  0  0  0  0  0  0  0  0  0  0  0
   -2.6176  -13.2734    0.0000 C   0  0  0  0  0  0  0  0  0  0  0  0
   -4.1176  -13.2734    0.0000 C   0  0  0  0  0  0  0  0  0  0  0  0
   -4.8676  -14.5725    0.0000 C   0  0  0  0  0  0  0  0  0  0  0  0
   -6.3676  -14.5725    0.0000 C   0  0  0  0  0  0  0  0  0  0  0  0
   -7.1176  -13.2734    0.0000 N   0  0  0  0  0  0  0  0  0  0  0  0
   -8.6176  -13.2734    0.0000 C   0  0  0  0  0  0  0  0  0  0  0  0
   -9.3676  -11.9744    0.0000 C   0  0  0  0  0  0  0  0  0  0  0  0
  -10.8676  -11.9744    0.0000 C   0  0  0  0  0  0  0  0  0  0  0  0
  -11.6176  -13.2734    0.0000 C   0  0  0  0  0  0  0  0  0  0  0  0
  -13.1176  -13.2734    0.0000 O   0  0  0  0  0  0  0  0  0  0  0  0
  -10.8676  -14.5725    0.0000 C   0  0  0  0  0  0  0  0  0  0  0  0
   -9.3676  -14.5725    0.0000 C   0  0  0  0  0  0  0  0  0  0  0  0
   -7.1176  -15.8715    0.0000 P   0  0  0  0  0  0  0  0  0  0  0  0
   -5.8741  -16.7103    0.0000 O   0  0  0  0  0  0  0  0  0  0  0  0
   -8.2667  -14.9073    0.0000 O   0  0  0  0  0  0  0  0  0  0  0  0
   -9.6763  -15.4203    0.0000 C   0  0  0  0  0  0  0  0  0  0  0  0
  -10.8253  -14.4562    0.0000 C   0  0  0  0  0  0  0  0  0  0  0  0
  -12.2349  -14.9692    0.0000 C   0  0  0  0  0  0  0  0  0  0  0  0
  -12.4953  -16.4464    0.0000 C   0  0  0  0  0  0  0  0  0  0  0  0
  -11.3463  -17.4106    0.0000 C   0  0  0  0  0  0  0  0  0  0  0  0
   -9.9367  -16.8976    0.0000 C   0  0  0  0  0  0  0  0  0  0  0  0
   -8.7877  -17.8617    0.0000 C   0  0  0  0  0  0  0  0  0  0  0  0
   -9.0481  -19.3389    0.0000 C   0  0  0  0  0  0  0  0  0  0  0  0
   -7.8991  -20.3031    0.0000 C   0  0  0  0  0  0  0  0  0  0  0  0
   -6.4895  -19.7901    0.0000 C   0  0  0  0  0  0  0  0  0  0  0  0
   -6.2291  -18.3129    0.0000 C   0  0  0  0  0  0  0  0  0  0  0  0
   -7.3781  -17.3487    0.0000 C   0  0  0  0  0  0  0  0  0  0  0  0
   -4.1176  -15.8715    0.0000 C   0  0  0  0  0  0  0  0  0  0  0  0
   -2.6176  -15.8715    0.0000 C   0  0  0  0  0  0  0  0  0  0  0  0
    0.6428  -11.7962    0.0000 N   0  0  0  0  0  0  0  0  0  0  0  0
   -0.9476   -8.6851    0.0000 C   0  0  0  0  0  0  0  0  0  0  0  0
   -2.4476   -8.6851    0.0000 C   0  0  0  0  0  0  0  0  0  0  0  0
   -5.4476  -11.2832    0.0000 P   0  0  0  0  0  0  0  0  0  0  0  0
   -4.0381  -11.7962    0.0000 O   0  0  0  0  0  0  0  0  0  0  0  0
   -6.5967  -10.3190    0.0000 O   0  0  0  0  0  0  0  0  0  0  0  0
   -8.0062  -10.8320    0.0000 C   0  0  0  0  0  0  0  0  0  0  0  0
   -9.1553   -9.8678    0.0000 C   0  0  0  0  0  0  0  0  0  0  0  0
  -10.5648  -10.3809    0.0000 C   0  0  0  0  0  0  0  0  0  0  0  0
  -10.8253  -11.8581    0.0000 C   0  0  0  0  0  0  0  0  0  0  0  0
   -9.6763  -12.8223    0.0000 C   0  0  0  0  0  0  0  0  0  0  0  0
   -8.2667  -12.3092    0.0000 C   0  0  0  0  0  0  0  0  0  0  0  0
   -7.1176  -13.2734    0.0000 C   0  0  0  0  0  0  0  0  0  0  0  0
   -7.3781  -14.7506    0.0000 C   0  0  0  0  0  0  0  0  0  0  0  0
   -6.2291  -15.7148    0.0000 C   0  0  0  0  0  0  0  0  0  0  0  0
   -4.8195  -15.2018    0.0000 C   0  0  0  0  0  0  0  0  0  0  0  0
   -4.5590  -13.7246    0.0000 C   0  0  0  0  0  0  0  0  0  0  0  0
   -5.7081  -12.7604    0.0000 C   0  0  0  0  0  0  0  0  0  0  0  0
   -7.6976   -9.9841    0.0000 C   0  0  0  0  0  0  0  0  0  0  0  0
   -9.1976   -9.9841    0.0000 C   0  0  0  0  0  0  0  0  0  0  0  0
  1  2  2  0
  2  3  1  0
  3  4  1  0
  4  5  1  0
  5  6  2  0
  6  7  1  0
  7  8  2  0
  8  9  1  0
  9 10  1  0
 10 11  1  0
 11 12  2  0
 12 13  1  0
 13 14  2  0
 14 15  1  0
 15 16  1  0
 16 17  1  0
 17 18  1  0
 18 19  2  0
 19 20  1  0
 20 21  2  0
 21 22  1  0
 22 23  1  0
 23 24  1  0
 24 25  2  0
 25 26  1  0
 26 27  2  0
 27 28  1  0
 27 29  1  0
 29 30  2  0
 22 31  1  0
 31 32  2  0
 31 33  1  0
 33 34  1  0
 34 35  2  0
 35 36  1  0
 36 37  2  0
 37 38  1  0
 38 39  2  0
 39 40  1  0
 40 41  2  0
 41 42  1  0
 42 43  2  0
 43 44  1  0
 44 45  2  0
 21 46  1  0
 46 47  2  0
 16 48  2  0
 48 49  1  0
 49 50  1  0
 50 51  1  0
 51 52  2  0
 52 53  1  0
 53 54  2  0
 54 55  1  0
 55 56  1  0
 56 57  1  0
 57 58  2  0
 58 59  1  0
 59 60  2  0
 60 61  1  0
 60 62  1  0
 62 63  2  0
 55 64  1  0
 64 65  2  0
 64 66  1  0
 66 67  1  0
 67 68  2  0
 68 69  1  0
 69 70  2  0
 70 71  1  0
 71 72  2  0
 72 73  1  0
 73 74  2  0
 74 75  1  0
 75 76  2  0
 76 77  1  0
 77 78  2  0
 54 79  1  0
 79 80  2  0
 49 81  1  0
 81 82  1  0
 82 83  2  0
 83 84  1  0
 84 85  2  0
 85 86  1  0
 86 87  1  0
 87 88  1  0
 88 89  2  0
 89 90  1  0
 90 91  2  0
 91 92  1  0
 91 93  1  0
 93 94  2  0
 86 95  1  0
 95 96  2  0
 95 97  1  0
 97 98  1  0
 98 99  2  0
 99100  1  0
100101  2  0
101102  1  0
102103  2  0
103104  1  0
104105  2  0
105106  1  0
106107  2  0
107108  1  0
108109  2  0
 85110  1  0
110111  2  0
 49112  2  0
112113  1  0
113114  1  0
114115  1  0
115116  2  0
116117  1  0
117118  2  0
118119  1  0
119120  1  0
120121  1  0
121122  2  0
122123  1  0
123124  2  0
124125  1  0
124126  1  0
126127  2  0
119128  1  0
128129  2  0
128130  1  0
130131  1  0
131132  2  0
132133  1  0
133134  2  0
134135  1  0
135136  2  0
136137  1  0
137138  2  0
138139  1  0
139140  2  0
140141  1  0
141142  2  0
118143  1  0
143144  2  0
113145  1  0
145146  1  0
146147  2  0
147148  1  0
148149  2  0
149150  1  0
150151  1  0
151152  1  0
152153  2  0
153154  1  0
154155  2  0
155156  1  0
155157  1  0
157158  2  0
150159  1  0
159160  2  0
159161  1  0
161162  1  0
162163  2  0
163164  1  0
164165  2  0
165166  1  0
166167  2  0
167168  1  0
168169  2  0
169170  1  0
170171  2  0
171172  1  0
172173  2  0
149174  1  0
174175  2  0
113176  2  0
 14177  1  0
177178  2  0
 10179  1  0
179180  2  0
179181  1  0
181182  1  0
182183  2  0
183184  1  0
184185  2  0
185186  1  0
186187  2  0
187188  1  0
188189  2  0
189190  1  0
190191  2  0
191192  1  0
192193  2  0
  8194  1  0
194195  2  0
195  5  1  0
178 11  1  0
193179  1  0
176 16  1  0
187182  1  0
193188  1  0
 47 18  1  0
 80 51  1  0
111 82  1  0
144115  1  0
175146  1  0
 30 24  1  0
 45 31  1  0
 63 57  1  0
 78 64  1  0
 94 88  1  0
109 95  1  0
127121  1  0
142128  1  0
158152  1  0
173159  1  0
 39 34  1  0
 45 40  1  0
 72 67  1  0
 78 73  1  0
103 98  1  0
109104  1  0
136131  1  0
142137  1  0
167162  1  0
173168  1  0
M  END
>  <Candidate_ID>  (36) 
CAND_R2_036

>  <Candidate_Name>  (36) 
CTP-DOPO-OH-allyl

>  <Parent_Seed_ID>  (36) 
TRAIN_041

>  <Parent_Name>  (36) 
CTP-DOPO

>  <Transformation_Code>  (36) 
OH_allyl

>  <Design_Family>  (36) 
P-N

>  <Preparation_Type>  (36) 
Additive

>  <Synthesis_Level>  (36) 
C

>  <Parent_Tanimoto_r3>  (36) 
0.8241758241758241

>  <Max_Train_Tanimoto_r3>  (36) 
0.8241758241758241

>  <Risk_Flags>  (36) 
high molecular weight; high DOPO count; exploratory only; excluded from formal screening

$$$$
CAND_R2_037 | CTP-DOPO-OH-allyl-all
     RDKit          2D

210240  0  0  0  0  0  0  0  0999 V2000
  -14.4476   -6.0870    0.0000 C   0  0  0  0  0  0  0  0  0  0  0  0
  -13.6976   -7.3861    0.0000 C   0  0  0  0  0  0  0  0  0  0  0  0
  -12.1976   -7.3861    0.0000 C   0  0  0  0  0  0  0  0  0  0  0  0
  -11.4476   -8.6851    0.0000 O   0  0  0  0  0  0  0  0  0  0  0  0
   -9.9476   -8.6851    0.0000 C   0  0  0  0  0  0  0  0  0  0  0  0
   -9.1976   -7.3861    0.0000 C   0  0  0  0  0  0  0  0  0  0  0  0
   -7.6976   -7.3861    0.0000 C   0  0  0  0  0  0  0  0  0  0  0  0
   -6.9476   -8.6851    0.0000 C   0  0  0  0  0  0  0  0  0  0  0  0
   -5.4476   -8.6851    0.0000 N   0  0  0  0  0  0  0  0  0  0  0  0
   -4.6976   -9.9841    0.0000 C   0  0  0  0  0  0  0  0  0  0  0  0
   -3.1976   -9.9841    0.0000 C   0  0  0  0  0  0  0  0  0  0  0  0
   -2.4476  -11.2832    0.0000 C   0  0  0  0  0  0  0  0  0  0  0  0
   -0.9476  -11.2832    0.0000 C   0  0  0  0  0  0  0  0  0  0  0  0
   -0.1976   -9.9841    0.0000 C   0  0  0  0  0  0  0  0  0  0  0  0
    1.3024   -9.9841    0.0000 O   0  0  0  0  0  0  0  0  0  0  0  0
    2.0524  -11.2832    0.0000 P   0  0  0  0  0  0  0  0  0  0  0  0
    3.2014  -10.3190    0.0000 O   0  0  0  0  0  0  0  0  0  0  0  0
    2.9410   -8.8418    0.0000 C   0  0  0  0  0  0  0  0  0  0  0  0
    1.5314   -8.3287    0.0000 C   0  0  0  0  0  0  0  0  0  0  0  0
    1.2709   -6.8515    0.0000 C   0  0  0  0  0  0  0  0  0  0  0  0
    2.4200   -5.8874    0.0000 C   0  0  0  0  0  0  0  0  0  0  0  0
    2.1595   -4.4101    0.0000 C   0  0  0  0  0  0  0  0  0  0  0  0
    0.7500   -3.8971    0.0000 N   0  0  0  0  0  0  0  0  0  0  0  0
   -0.3991   -4.8613    0.0000 C   0  0  0  0  0  0  0  0  0  0  0  0
   -0.1386   -6.3385    0.0000 C   0  0  0  0  0  0  0  0  0  0  0  0
   -1.2877   -7.3027    0.0000 C   0  0  0  0  0  0  0  0  0  0  0  0
   -2.6972   -6.7897    0.0000 C   0  0  0  0  0  0  0  0  0  0  0  0
   -3.8463   -7.7538    0.0000 O   0  0  0  0  0  0  0  0  0  0  0  0
   -5.2558   -7.2408    0.0000 C   0  0  0  0  0  0  0  0  0  0  0  0
   -5.5163   -5.7636    0.0000 C   0  0  0  0  0  0  0  0  0  0  0  0
   -6.9258   -5.2506    0.0000 C   0  0  0  0  0  0  0  0  0  0  0  0
   -2.9577   -5.3124    0.0000 C   0  0  0  0  0  0  0  0  0  0  0  0
   -1.8086   -4.3483    0.0000 C   0  0  0  0  0  0  0  0  0  0  0  0
    3.3086   -3.4460    0.0000 P   0  0  0  0  0  0  0  0  0  0  0  0
    4.0586   -4.7450    0.0000 O   0  0  0  0  0  0  0  0  0  0  0  0
    2.1595   -2.4818    0.0000 O   0  0  0  0  0  0  0  0  0  0  0  0
    2.4200   -1.0046    0.0000 C   0  0  0  0  0  0  0  0  0  0  0  0
    1.2709   -0.0404    0.0000 C   0  0  0  0  0  0  0  0  0  0  0  0
    1.5314    1.4368    0.0000 C   0  0  0  0  0  0  0  0  0  0  0  0
    2.9410    1.9499    0.0000 C   0  0  0  0  0  0  0  0  0  0  0  0
    4.0900    0.9857    0.0000 C   0  0  0  0  0  0  0  0  0  0  0  0
    3.8296   -0.4915    0.0000 C   0  0  0  0  0  0  0  0  0  0  0  0
    4.9786   -1.4557    0.0000 C   0  0  0  0  0  0  0  0  0  0  0  0
    6.3882   -0.9427    0.0000 C   0  0  0  0  0  0  0  0  0  0  0  0
    7.5372   -1.9069    0.0000 C   0  0  0  0  0  0  0  0  0  0  0  0
    7.2768   -3.3841    0.0000 C   0  0  0  0  0  0  0  0  0  0  0  0
    5.8672   -3.8971    0.0000 C   0  0  0  0  0  0  0  0  0  0  0  0
    4.7181   -2.9329    0.0000 C   0  0  0  0  0  0  0  0  0  0  0  0
    3.8296   -6.4004    0.0000 C   0  0  0  0  0  0  0  0  0  0  0  0
    4.0900   -7.8776    0.0000 C   0  0  0  0  0  0  0  0  0  0  0  0
    3.2014  -12.2474    0.0000 N   0  0  0  0  0  0  0  0  0  0  0  0
    2.9410  -13.7246    0.0000 P   0  0  0  0  0  0  0  0  0  0  0  0
    3.2014  -15.2018    0.0000 O   0  0  0  0  0  0  0  0  0  0  0  0
    4.6110  -15.7148    0.0000 C   0  0  0  0  0  0  0  0  0  0  0  0
    4.8714  -17.1920    0.0000 C   0  0  0  0  0  0  0  0  0  0  0  0
    6.2810  -17.7050    0.0000 C   0  0  0  0  0  0  0  0  0  0  0  0
    7.4300  -16.7409    0.0000 C   0  0  0  0  0  0  0  0  0  0  0  0
    8.8396  -17.2539    0.0000 C   0  0  0  0  0  0  0  0  0  0  0  0
    9.1001  -18.7311    0.0000 N   0  0  0  0  0  0  0  0  0  0  0  0
   10.5096  -19.2441    0.0000 C   0  0  0  0  0  0  0  0  0  0  0  0
   10.7701  -20.7214    0.0000 C   0  0  0  0  0  0  0  0  0  0  0  0
   12.1796  -21.2344    0.0000 C   0  0  0  0  0  0  0  0  0  0  0  0
   13.3287  -20.2702    0.0000 C   0  0  0  0  0  0  0  0  0  0  0  0
   14.7382  -20.7832    0.0000 O   0  0  0  0  0  0  0  0  0  0  0  0
   14.9987  -22.2604    0.0000 C   0  0  0  0  0  0  0  0  0  0  0  0
   16.4082  -22.7735    0.0000 C   0  0  0  0  0  0  0  0  0  0  0  0
   16.6687  -24.2507    0.0000 C   0  0  0  0  0  0  0  0  0  0  0  0
   13.0682  -18.7930    0.0000 C   0  0  0  0  0  0  0  0  0  0  0  0
   11.6587  -18.2800    0.0000 C   0  0  0  0  0  0  0  0  0  0  0  0
    9.9887  -16.2897    0.0000 P   0  0  0  0  0  0  0  0  0  0  0  0
   10.7387  -17.5888    0.0000 O   0  0  0  0  0  0  0  0  0  0  0  0
    8.8396  -15.3255    0.0000 O   0  0  0  0  0  0  0  0  0  0  0  0
    9.1001  -13.8483    0.0000 C   0  0  0  0  0  0  0  0  0  0  0  0
    7.9510  -12.8841    0.0000 C   0  0  0  0  0  0  0  0  0  0  0  0
    8.2115  -11.4069    0.0000 C   0  0  0  0  0  0  0  0  0  0  0  0
    9.6210  -10.8939    0.0000 C   0  0  0  0  0  0  0  0  0  0  0  0
   10.7701  -11.8581    0.0000 C   0  0  0  0  0  0  0  0  0  0  0  0
   10.5096  -13.3353    0.0000 C   0  0  0  0  0  0  0  0  0  0  0  0
   11.6587  -14.2995    0.0000 C   0  0  0  0  0  0  0  0  0  0  0  0
   13.0682  -13.7864    0.0000 C   0  0  0  0  0  0  0  0  0  0  0  0
   14.2173  -14.7506    0.0000 C   0  0  0  0  0  0  0  0  0  0  0  0
   13.9568  -16.2278    0.0000 C   0  0  0  0  0  0  0  0  0  0  0  0
   12.5473  -16.7409    0.0000 C   0  0  0  0  0  0  0  0  0  0  0  0
   11.3982  -15.7767    0.0000 C   0  0  0  0  0  0  0  0  0  0  0  0
    7.1696  -15.2637    0.0000 C   0  0  0  0  0  0  0  0  0  0  0  0
    5.7600  -14.7506    0.0000 C   0  0  0  0  0  0  0  0  0  0  0  0
    4.4410  -13.7246    0.0000 O   0  0  0  0  0  0  0  0  0  0  0  0
    5.1910  -12.4255    0.0000 C   0  0  0  0  0  0  0  0  0  0  0  0
    4.4410  -11.1265    0.0000 C   0  0  0  0  0  0  0  0  0  0  0  0
    5.1910   -9.8275    0.0000 C   0  0  0  0  0  0  0  0  0  0  0  0
    6.6910   -9.8275    0.0000 C   0  0  0  0  0  0  0  0  0  0  0  0
    7.4410   -8.5284    0.0000 C   0  0  0  0  0  0  0  0  0  0  0  0
    6.6910   -7.2294    0.0000 N   0  0  0  0  0  0  0  0  0  0  0  0
    7.4410   -5.9303    0.0000 C   0  0  0  0  0  0  0  0  0  0  0  0
    8.9410   -5.9303    0.0000 C   0  0  0  0  0  0  0  0  0  0  0  0
    9.6910   -4.6313    0.0000 C   0  0  0  0  0  0  0  0  0  0  0  0
    8.9410   -3.3323    0.0000 C   0  0  0  0  0  0  0  0  0  0  0  0
    9.6910   -2.0332    0.0000 O   0  0  0  0  0  0  0  0  0  0  0  0
   11.1910   -2.0332    0.0000 C   0  0  0  0  0  0  0  0  0  0  0  0
   11.9410   -0.7342    0.0000 C   0  0  0  0  0  0  0  0  0  0  0  0
   13.4410   -0.7342    0.0000 C   0  0  0  0  0  0  0  0  0  0  0  0
    7.4410   -3.3323    0.0000 C   0  0  0  0  0  0  0  0  0  0  0  0
    6.6910   -4.6313    0.0000 C   0  0  0  0  0  0  0  0  0  0  0  0
    8.9410   -8.5284    0.0000 P   0  0  0  0  0  0  0  0  0  0  0  0
    8.6805  -10.0056    0.0000 O   0  0  0  0  0  0  0  0  0  0  0  0
    8.6805   -7.0512    0.0000 O   0  0  0  0  0  0  0  0  0  0  0  0
    9.8296   -6.0870    0.0000 C   0  0  0  0  0  0  0  0  0  0  0  0
    9.5691   -4.6098    0.0000 C   0  0  0  0  0  0  0  0  0  0  0  0
   10.7181   -3.6456    0.0000 C   0  0  0  0  0  0  0  0  0  0  0  0
   12.1277   -4.1587    0.0000 C   0  0  0  0  0  0  0  0  0  0  0  0
   12.3882   -5.6359    0.0000 C   0  0  0  0  0  0  0  0  0  0  0  0
   11.2391   -6.6001    0.0000 C   0  0  0  0  0  0  0  0  0  0  0  0
   11.4996   -8.0773    0.0000 C   0  0  0  0  0  0  0  0  0  0  0  0
   12.9091   -8.5903    0.0000 C   0  0  0  0  0  0  0  0  0  0  0  0
   13.1696  -10.0675    0.0000 C   0  0  0  0  0  0  0  0  0  0  0  0
   12.0205  -11.0317    0.0000 C   0  0  0  0  0  0  0  0  0  0  0  0
   10.6110  -10.5187    0.0000 C   0  0  0  0  0  0  0  0  0  0  0  0
   10.3505   -9.0414    0.0000 C   0  0  0  0  0  0  0  0  0  0  0  0
    7.4410  -11.1265    0.0000 C   0  0  0  0  0  0  0  0  0  0  0  0
    6.6910  -12.4255    0.0000 C   0  0  0  0  0  0  0  0  0  0  0  0
    1.5314  -14.2376    0.0000 N   0  0  0  0  0  0  0  0  0  0  0  0
    0.3824  -13.2734    0.0000 P   0  0  0  0  0  0  0  0  0  0  0  0
   -1.0272  -12.7604    0.0000 O   0  0  0  0  0  0  0  0  0  0  0  0
   -2.1763  -13.7246    0.0000 C   0  0  0  0  0  0  0  0  0  0  0  0
   -3.5858  -13.2115    0.0000 C   0  0  0  0  0  0  0  0  0  0  0  0
   -4.7349  -14.1757    0.0000 C   0  0  0  0  0  0  0  0  0  0  0  0
   -4.4744  -15.6529    0.0000 C   0  0  0  0  0  0  0  0  0  0  0  0
   -5.6235  -16.6171    0.0000 C   0  0  0  0  0  0  0  0  0  0  0  0
   -7.0330  -16.1041    0.0000 N   0  0  0  0  0  0  0  0  0  0  0  0
   -8.1821  -17.0683    0.0000 C   0  0  0  0  0  0  0  0  0  0  0  0
   -9.5916  -16.5552    0.0000 C   0  0  0  0  0  0  0  0  0  0  0  0
  -10.7407  -17.5194    0.0000 C   0  0  0  0  0  0  0  0  0  0  0  0
  -10.4802  -18.9966    0.0000 C   0  0  0  0  0  0  0  0  0  0  0  0
  -11.6293  -19.9608    0.0000 O   0  0  0  0  0  0  0  0  0  0  0  0
  -13.0388  -19.4478    0.0000 C   0  0  0  0  0  0  0  0  0  0  0  0
  -14.1879  -20.4120    0.0000 C   0  0  0  0  0  0  0  0  0  0  0  0
  -15.5974  -19.8989    0.0000 C   0  0  0  0  0  0  0  0  0  0  0  0
   -9.0707  -19.5097    0.0000 C   0  0  0  0  0  0  0  0  0  0  0  0
   -7.9216  -18.5455    0.0000 C   0  0  0  0  0  0  0  0  0  0  0  0
   -5.3630  -18.0943    0.0000 P   0  0  0  0  0  0  0  0  0  0  0  0
   -3.9534  -17.5813    0.0000 O   0  0  0  0  0  0  0  0  0  0  0  0
   -6.8630  -18.0943    0.0000 O   0  0  0  0  0  0  0  0  0  0  0  0
   -7.6130  -19.3934    0.0000 C   0  0  0  0  0  0  0  0  0  0  0  0
   -9.1130  -19.3934    0.0000 C   0  0  0  0  0  0  0  0  0  0  0  0
   -9.8630  -20.6924    0.0000 C   0  0  0  0  0  0  0  0  0  0  0  0
   -9.1130  -21.9914    0.0000 C   0  0  0  0  0  0  0  0  0  0  0  0
   -7.6130  -21.9914    0.0000 C   0  0  0  0  0  0  0  0  0  0  0  0
   -6.8630  -20.6924    0.0000 C   0  0  0  0  0  0  0  0  0  0  0  0
   -5.3630  -20.6924    0.0000 C   0  0  0  0  0  0  0  0  0  0  0  0
   -4.6130  -21.9914    0.0000 C   0  0  0  0  0  0  0  0  0  0  0  0
   -3.1130  -21.9914    0.0000 C   0  0  0  0  0  0  0  0  0  0  0  0
   -2.3630  -20.6924    0.0000 C   0  0  0  0  0  0  0  0  0  0  0  0
   -3.1130  -19.3934    0.0000 C   0  0  0  0  0  0  0  0  0  0  0  0
   -4.6130  -19.3934    0.0000 C   0  0  0  0  0  0  0  0  0  0  0  0
   -3.0648  -16.1660    0.0000 C   0  0  0  0  0  0  0  0  0  0  0  0
   -1.9158  -15.2018    0.0000 C   0  0  0  0  0  0  0  0  0  0  0  0
   -0.3676  -14.5725    0.0000 O   0  0  0  0  0  0  0  0  0  0  0  0
   -1.8676  -14.5725    0.0000 C   0  0  0  0  0  0  0  0  0  0  0  0
   -2.6176  -13.2734    0.0000 C   0  0  0  0  0  0  0  0  0  0  0  0
   -4.1176  -13.2734    0.0000 C   0  0  0  0  0  0  0  0  0  0  0  0
   -4.8676  -14.5725    0.0000 C   0  0  0  0  0  0  0  0  0  0  0  0
   -6.3676  -14.5725    0.0000 C   0  0  0  0  0  0  0  0  0  0  0  0
   -7.1176  -13.2734    0.0000 N   0  0  0  0  0  0  0  0  0  0  0  0
   -8.6176  -13.2734    0.0000 C   0  0  0  0  0  0  0  0  0  0  0  0
   -9.3676  -11.9744    0.0000 C   0  0  0  0  0  0  0  0  0  0  0  0
  -10.8676  -11.9744    0.0000 C   0  0  0  0  0  0  0  0  0  0  0  0
  -11.6176  -13.2734    0.0000 C   0  0  0  0  0  0  0  0  0  0  0  0
  -13.1176  -13.2734    0.0000 O   0  0  0  0  0  0  0  0  0  0  0  0
  -13.8676  -11.9744    0.0000 C   0  0  0  0  0  0  0  0  0  0  0  0
  -15.3676  -11.9744    0.0000 C   0  0  0  0  0  0  0  0  0  0  0  0
  -16.1176  -10.6753    0.0000 C   0  0  0  0  0  0  0  0  0  0  0  0
  -10.8676  -14.5725    0.0000 C   0  0  0  0  0  0  0  0  0  0  0  0
   -9.3676  -14.5725    0.0000 C   0  0  0  0  0  0  0  0  0  0  0  0
   -7.1176  -15.8715    0.0000 P   0  0  0  0  0  0  0  0  0  0  0  0
   -5.8741  -16.7103    0.0000 O   0  0  0  0  0  0  0  0  0  0  0  0
   -8.2667  -14.9073    0.0000 O   0  0  0  0  0  0  0  0  0  0  0  0
   -9.6763  -15.4203    0.0000 C   0  0  0  0  0  0  0  0  0  0  0  0
  -10.8253  -14.4562    0.0000 C   0  0  0  0  0  0  0  0  0  0  0  0
  -12.2349  -14.9692    0.0000 C   0  0  0  0  0  0  0  0  0  0  0  0
  -12.4953  -16.4464    0.0000 C   0  0  0  0  0  0  0  0  0  0  0  0
  -11.3463  -17.4106    0.0000 C   0  0  0  0  0  0  0  0  0  0  0  0
   -9.9367  -16.8976    0.0000 C   0  0  0  0  0  0  0  0  0  0  0  0
   -8.7877  -17.8617    0.0000 C   0  0  0  0  0  0  0  0  0  0  0  0
   -9.0481  -19.3389    0.0000 C   0  0  0  0  0  0  0  0  0  0  0  0
   -7.8991  -20.3031    0.0000 C   0  0  0  0  0  0  0  0  0  0  0  0
   -6.4895  -19.7901    0.0000 C   0  0  0  0  0  0  0  0  0  0  0  0
   -6.2291  -18.3129    0.0000 C   0  0  0  0  0  0  0  0  0  0  0  0
   -7.3781  -17.3487    0.0000 C   0  0  0  0  0  0  0  0  0  0  0  0
   -4.1176  -15.8715    0.0000 C   0  0  0  0  0  0  0  0  0  0  0  0
   -2.6176  -15.8715    0.0000 C   0  0  0  0  0  0  0  0  0  0  0  0
    0.6428  -11.7962    0.0000 N   0  0  0  0  0  0  0  0  0  0  0  0
   -0.9476   -8.6851    0.0000 C   0  0  0  0  0  0  0  0  0  0  0  0
   -2.4476   -8.6851    0.0000 C   0  0  0  0  0  0  0  0  0  0  0  0
   -5.4476  -11.2832    0.0000 P   0  0  0  0  0  0  0  0  0  0  0  0
   -4.0381  -11.7962    0.0000 O   0  0  0  0  0  0  0  0  0  0  0  0
   -6.5967  -10.3190    0.0000 O   0  0  0  0  0  0  0  0  0  0  0  0
   -8.0062  -10.8320    0.0000 C   0  0  0  0  0  0  0  0  0  0  0  0
   -9.1553   -9.8678    0.0000 C   0  0  0  0  0  0  0  0  0  0  0  0
  -10.5648  -10.3809    0.0000 C   0  0  0  0  0  0  0  0  0  0  0  0
  -10.8253  -11.8581    0.0000 C   0  0  0  0  0  0  0  0  0  0  0  0
   -9.6763  -12.8223    0.0000 C   0  0  0  0  0  0  0  0  0  0  0  0
   -8.2667  -12.3092    0.0000 C   0  0  0  0  0  0  0  0  0  0  0  0
   -7.1176  -13.2734    0.0000 C   0  0  0  0  0  0  0  0  0  0  0  0
   -7.3781  -14.7506    0.0000 C   0  0  0  0  0  0  0  0  0  0  0  0
   -6.2291  -15.7148    0.0000 C   0  0  0  0  0  0  0  0  0  0  0  0
   -4.8195  -15.2018    0.0000 C   0  0  0  0  0  0  0  0  0  0  0  0
   -4.5590  -13.7246    0.0000 C   0  0  0  0  0  0  0  0  0  0  0  0
   -5.7081  -12.7604    0.0000 C   0  0  0  0  0  0  0  0  0  0  0  0
   -7.6976   -9.9841    0.0000 C   0  0  0  0  0  0  0  0  0  0  0  0
   -9.1976   -9.9841    0.0000 C   0  0  0  0  0  0  0  0  0  0  0  0
  1  2  2  0
  2  3  1  0
  3  4  1  0
  4  5  1  0
  5  6  2  0
  6  7  1  0
  7  8  2  0
  8  9  1  0
  9 10  1  0
 10 11  1  0
 11 12  2  0
 12 13  1  0
 13 14  2  0
 14 15  1  0
 15 16  1  0
 16 17  1  0
 17 18  1  0
 18 19  2  0
 19 20  1  0
 20 21  2  0
 21 22  1  0
 22 23  1  0
 23 24  1  0
 24 25  2  0
 25 26  1  0
 26 27  2  0
 27 28  1  0
 28 29  1  0
 29 30  1  0
 30 31  2  0
 27 32  1  0
 32 33  2  0
 22 34  1  0
 34 35  2  0
 34 36  1  0
 36 37  1  0
 37 38  2  0
 38 39  1  0
 39 40  2  0
 40 41  1  0
 41 42  2  0
 42 43  1  0
 43 44  2  0
 44 45  1  0
 45 46  2  0
 46 47  1  0
 47 48  2  0
 21 49  1  0
 49 50  2  0
 16 51  2  0
 51 52  1  0
 52 53  1  0
 53 54  1  0
 54 55  2  0
 55 56  1  0
 56 57  2  0
 57 58  1  0
 58 59  1  0
 59 60  1  0
 60 61  2  0
 61 62  1  0
 62 63  2  0
 63 64  1  0
 64 65  1  0
 65 66  1  0
 66 67  2  0
 63 68  1  0
 68 69  2  0
 58 70  1  0
 70 71  2  0
 70 72  1  0
 72 73  1  0
 73 74  2  0
 74 75  1  0
 75 76  2  0
 76 77  1  0
 77 78  2  0
 78 79  1  0
 79 80  2  0
 80 81  1  0
 81 82  2  0
 82 83  1  0
 83 84  2  0
 57 85  1  0
 85 86  2  0
 52 87  1  0
 87 88  1  0
 88 89  2  0
 89 90  1  0
 90 91  2  0
 91 92  1  0
 92 93  1  0
 93 94  1  0
 94 95  2  0
 95 96  1  0
 96 97  2  0
 97 98  1  0
 98 99  1  0
 99100  1  0
100101  2  0
 97102  1  0
102103  2  0
 92104  1  0
104105  2  0
104106  1  0
106107  1  0
107108  2  0
108109  1  0
109110  2  0
110111  1  0
111112  2  0
112113  1  0
113114  2  0
114115  1  0
115116  2  0
116117  1  0
117118  2  0
 91119  1  0
119120  2  0
 52121  2  0
121122  1  0
122123  1  0
123124  1  0
124125  2  0
125126  1  0
126127  2  0
127128  1  0
128129  1  0
129130  1  0
130131  2  0
131132  1  0
132133  2  0
133134  1  0
134135  1  0
135136  1  0
136137  2  0
133138  1  0
138139  2  0
128140  1  0
140141  2  0
140142  1  0
142143  1  0
143144  2  0
144145  1  0
145146  2  0
146147  1  0
147148  2  0
148149  1  0
149150  2  0
150151  1  0
151152  2  0
152153  1  0
153154  2  0
127155  1  0
155156  2  0
122157  1  0
157158  1  0
158159  2  0
159160  1  0
160161  2  0
161162  1  0
162163  1  0
163164  1  0
164165  2  0
165166  1  0
166167  2  0
167168  1  0
168169  1  0
169170  1  0
170171  2  0
167172  1  0
172173  2  0
162174  1  0
174175  2  0
174176  1  0
176177  1  0
177178  2  0
178179  1  0
179180  2  0
180181  1  0
181182  2  0
182183  1  0
183184  2  0
184185  1  0
185186  2  0
186187  1  0
187188  2  0
161189  1  0
189190  2  0
122191  2  0
 14192  1  0
192193  2  0
 10194  1  0
194195  2  0
194196  1  0
196197  1  0
197198  2  0
198199  1  0
199200  2  0
200201  1  0
201202  2  0
202203  1  0
203204  2  0
204205  1  0
205206  2  0
206207  1  0
207208  2  0
  8209  1  0
209210  2  0
210  5  1  0
193 11  1  0
208194  1  0
191 16  1  0
202197  1  0
208203  1  0
 50 18  1  0
 86 54  1  0
120 88  1  0
156124  1  0
190158  1  0
 33 24  1  0
 48 34  1  0
 69 60  1  0
 84 70  1  0
103 94  1  0
118104  1  0
139130  1  0
154140  1  0
173164  1  0
188174  1  0
 42 37  1  0
 48 43  1  0
 78 73  1  0
 84 79  1  0
112107  1  0
118113  1  0
148143  1  0
154149  1  0
182177  1  0
188183  1  0
M  END
>  <Candidate_ID>  (37) 
CAND_R2_037

>  <Candidate_Name>  (37) 
CTP-DOPO-OH-allyl-all

>  <Parent_Seed_ID>  (37) 
TRAIN_041

>  <Parent_Name>  (37) 
CTP-DOPO

>  <Transformation_Code>  (37) 
OH_allyl_all

>  <Design_Family>  (37) 
P-N

>  <Preparation_Type>  (37) 
Additive

>  <Synthesis_Level>  (37) 
C

>  <Parent_Tanimoto_r3>  (37) 
0.7472527472527473

>  <Max_Train_Tanimoto_r3>  (37) 
0.7472527472527473

>  <Risk_Flags>  (37) 
high molecular weight; high DOPO count; exploratory only; excluded from formal screening

$$$$
CAND_R2_038 | CTP-DOPO-NH-methyl
     RDKit          2D

193223  0  0  0  0  0  0  0  0999 V2000
   -6.9476  -11.2832    0.0000 C   0  0  0  0  0  0  0  0  0  0  0  0
   -5.4476  -11.2832    0.0000 N   0  0  0  0  0  0  0  0  0  0  0  0
   -4.6976  -12.5822    0.0000 C   0  0  0  0  0  0  0  0  0  0  0  0
   -3.1976  -12.5822    0.0000 C   0  0  0  0  0  0  0  0  0  0  0  0
   -2.4476  -13.8812    0.0000 C   0  0  0  0  0  0  0  0  0  0  0  0
   -3.1976  -15.1803    0.0000 C   0  0  0  0  0  0  0  0  0  0  0  0
   -3.1455  -16.6794    0.0000 O   0  0  0  0  0  0  0  0  0  0  0  0
   -4.6976  -15.1803    0.0000 C   0  0  0  0  0  0  0  0  0  0  0  0
   -5.4476  -13.8812    0.0000 C   0  0  0  0  0  0  0  0  0  0  0  0
   -4.6976   -9.9841    0.0000 C   0  0  0  0  0  0  0  0  0  0  0  0
   -3.1976   -9.9841    0.0000 C   0  0  0  0  0  0  0  0  0  0  0  0
   -2.4476   -8.6851    0.0000 C   0  0  0  0  0  0  0  0  0  0  0  0
   -0.9476   -8.6851    0.0000 C   0  0  0  0  0  0  0  0  0  0  0  0
   -0.1976   -9.9841    0.0000 C   0  0  0  0  0  0  0  0  0  0  0  0
    1.3024   -9.9841    0.0000 O   0  0  0  0  0  0  0  0  0  0  0  0
    2.0524  -11.2832    0.0000 P   0  0  0  0  0  0  0  0  0  0  0  0
    3.2014  -10.3190    0.0000 O   0  0  0  0  0  0  0  0  0  0  0  0
    2.9410   -8.8418    0.0000 C   0  0  0  0  0  0  0  0  0  0  0  0
    4.0900   -7.8776    0.0000 C   0  0  0  0  0  0  0  0  0  0  0  0
    3.8296   -6.4004    0.0000 C   0  0  0  0  0  0  0  0  0  0  0  0
    2.4200   -5.8874    0.0000 C   0  0  0  0  0  0  0  0  0  0  0  0
    2.1595   -4.4101    0.0000 C   0  0  0  0  0  0  0  0  0  0  0  0
    3.3086   -3.4460    0.0000 N   0  0  0  0  0  0  0  0  0  0  0  0
    4.7181   -3.9590    0.0000 C   0  0  0  0  0  0  0  0  0  0  0  0
    4.9786   -5.4362    0.0000 C   0  0  0  0  0  0  0  0  0  0  0  0
    6.3882   -5.9492    0.0000 C   0  0  0  0  0  0  0  0  0  0  0  0
    7.5372   -4.9851    0.0000 C   0  0  0  0  0  0  0  0  0  0  0  0
    8.9468   -5.4981    0.0000 O   0  0  0  0  0  0  0  0  0  0  0  0
    7.2768   -3.5078    0.0000 C   0  0  0  0  0  0  0  0  0  0  0  0
    5.8672   -2.9948    0.0000 C   0  0  0  0  0  0  0  0  0  0  0  0
    0.7500   -3.8971    0.0000 P   0  0  0  0  0  0  0  0  0  0  0  0
    0.4895   -5.3743    0.0000 O   0  0  0  0  0  0  0  0  0  0  0  0
    1.5000   -2.5981    0.0000 O   0  0  0  0  0  0  0  0  0  0  0  0
    0.7500   -1.2990    0.0000 C   0  0  0  0  0  0  0  0  0  0  0  0
    1.5000   -0.0000    0.0000 C   0  0  0  0  0  0  0  0  0  0  0  0
    0.7500    1.2990    0.0000 C   0  0  0  0  0  0  0  0  0  0  0  0
   -0.7500    1.2990    0.0000 C   0  0  0  0  0  0  0  0  0  0  0  0
   -1.5000   -0.0000    0.0000 C   0  0  0  0  0  0  0  0  0  0  0  0
   -0.7500   -1.2990    0.0000 C   0  0  0  0  0  0  0  0  0  0  0  0
   -1.5000   -2.5981    0.0000 C   0  0  0  0  0  0  0  0  0  0  0  0
   -3.0000   -2.5981    0.0000 C   0  0  0  0  0  0  0  0  0  0  0  0
   -3.7500   -3.8971    0.0000 C   0  0  0  0  0  0  0  0  0  0  0  0
   -3.0000   -5.1962    0.0000 C   0  0  0  0  0  0  0  0  0  0  0  0
   -1.5000   -5.1962    0.0000 C   0  0  0  0  0  0  0  0  0  0  0  0
   -0.7500   -3.8971    0.0000 C   0  0  0  0  0  0  0  0  0  0  0  0
    1.2709   -6.8515    0.0000 C   0  0  0  0  0  0  0  0  0  0  0  0
    1.5314   -8.3287    0.0000 C   0  0  0  0  0  0  0  0  0  0  0  0
    3.2014  -12.2474    0.0000 N   0  0  0  0  0  0  0  0  0  0  0  0
    2.9410  -13.7246    0.0000 P   0  0  0  0  0  0  0  0  0  0  0  0
    3.2014  -15.2018    0.0000 O   0  0  0  0  0  0  0  0  0  0  0  0
    4.6110  -15.7148    0.0000 C   0  0  0  0  0  0  0  0  0  0  0  0
    4.8714  -17.1920    0.0000 C   0  0  0  0  0  0  0  0  0  0  0  0
    6.2810  -17.7050    0.0000 C   0  0  0  0  0  0  0  0  0  0  0  0
    7.4300  -16.7409    0.0000 C   0  0  0  0  0  0  0  0  0  0  0  0
    8.8396  -17.2539    0.0000 C   0  0  0  0  0  0  0  0  0  0  0  0
    9.1001  -18.7311    0.0000 N   0  0  0  0  0  0  0  0  0  0  0  0
   10.5096  -19.2441    0.0000 C   0  0  0  0  0  0  0  0  0  0  0  0
   10.7701  -20.7214    0.0000 C   0  0  0  0  0  0  0  0  0  0  0  0
   12.1796  -21.2344    0.0000 C   0  0  0  0  0  0  0  0  0  0  0  0
   13.3287  -20.2702    0.0000 C   0  0  0  0  0  0  0  0  0  0  0  0
   14.7382  -20.7832    0.0000 O   0  0  0  0  0  0  0  0  0  0  0  0
   13.0682  -18.7930    0.0000 C   0  0  0  0  0  0  0  0  0  0  0  0
   11.6587  -18.2800    0.0000 C   0  0  0  0  0  0  0  0  0  0  0  0
    9.9887  -16.2897    0.0000 P   0  0  0  0  0  0  0  0  0  0  0  0
   10.7387  -17.5888    0.0000 O   0  0  0  0  0  0  0  0  0  0  0  0
    8.8396  -15.3255    0.0000 O   0  0  0  0  0  0  0  0  0  0  0  0
    9.1001  -13.8483    0.0000 C   0  0  0  0  0  0  0  0  0  0  0  0
    7.9510  -12.8841    0.0000 C   0  0  0  0  0  0  0  0  0  0  0  0
    8.2115  -11.4069    0.0000 C   0  0  0  0  0  0  0  0  0  0  0  0
    9.6210  -10.8939    0.0000 C   0  0  0  0  0  0  0  0  0  0  0  0
   10.7701  -11.8581    0.0000 C   0  0  0  0  0  0  0  0  0  0  0  0
   10.5096  -13.3353    0.0000 C   0  0  0  0  0  0  0  0  0  0  0  0
   11.6587  -14.2995    0.0000 C   0  0  0  0  0  0  0  0  0  0  0  0
   13.0682  -13.7864    0.0000 C   0  0  0  0  0  0  0  0  0  0  0  0
   14.2173  -14.7506    0.0000 C   0  0  0  0  0  0  0  0  0  0  0  0
   13.9568  -16.2278    0.0000 C   0  0  0  0  0  0  0  0  0  0  0  0
   12.5473  -16.7409    0.0000 C   0  0  0  0  0  0  0  0  0  0  0  0
   11.3982  -15.7767    0.0000 C   0  0  0  0  0  0  0  0  0  0  0  0
    7.1696  -15.2637    0.0000 C   0  0  0  0  0  0  0  0  0  0  0  0
    5.7600  -14.7506    0.0000 C   0  0  0  0  0  0  0  0  0  0  0  0
    4.4410  -13.7246    0.0000 O   0  0  0  0  0  0  0  0  0  0  0  0
    5.1910  -12.4255    0.0000 C   0  0  0  0  0  0  0  0  0  0  0  0
    4.4410  -11.1265    0.0000 C   0  0  0  0  0  0  0  0  0  0  0  0
    5.1910   -9.8275    0.0000 C   0  0  0  0  0  0  0  0  0  0  0  0
    6.6910   -9.8275    0.0000 C   0  0  0  0  0  0  0  0  0  0  0  0
    7.4410   -8.5284    0.0000 C   0  0  0  0  0  0  0  0  0  0  0  0
    6.6910   -7.2294    0.0000 N   0  0  0  0  0  0  0  0  0  0  0  0
    5.1910   -7.2294    0.0000 C   0  0  0  0  0  0  0  0  0  0  0  0
    4.4410   -5.9303    0.0000 C   0  0  0  0  0  0  0  0  0  0  0  0
    2.9410   -5.9303    0.0000 C   0  0  0  0  0  0  0  0  0  0  0  0
    2.1910   -7.2294    0.0000 C   0  0  0  0  0  0  0  0  0  0  0  0
    0.7355   -6.8664    0.0000 O   0  0  0  0  0  0  0  0  0  0  0  0
    2.9410   -8.5284    0.0000 C   0  0  0  0  0  0  0  0  0  0  0  0
    4.4410   -8.5284    0.0000 C   0  0  0  0  0  0  0  0  0  0  0  0
    8.9410   -8.5284    0.0000 P   0  0  0  0  0  0  0  0  0  0  0  0
    8.6805  -10.0056    0.0000 O   0  0  0  0  0  0  0  0  0  0  0  0
    8.6805   -7.0512    0.0000 O   0  0  0  0  0  0  0  0  0  0  0  0
    9.8296   -6.0870    0.0000 C   0  0  0  0  0  0  0  0  0  0  0  0
    9.5691   -4.6098    0.0000 C   0  0  0  0  0  0  0  0  0  0  0  0
   10.7181   -3.6456    0.0000 C   0  0  0  0  0  0  0  0  0  0  0  0
   12.1277   -4.1587    0.0000 C   0  0  0  0  0  0  0  0  0  0  0  0
   12.3882   -5.6359    0.0000 C   0  0  0  0  0  0  0  0  0  0  0  0
   11.2391   -6.6001    0.0000 C   0  0  0  0  0  0  0  0  0  0  0  0
   11.4996   -8.0773    0.0000 C   0  0  0  0  0  0  0  0  0  0  0  0
   12.9091   -8.5903    0.0000 C   0  0  0  0  0  0  0  0  0  0  0  0
   13.1696  -10.0675    0.0000 C   0  0  0  0  0  0  0  0  0  0  0  0
   12.0205  -11.0317    0.0000 C   0  0  0  0  0  0  0  0  0  0  0  0
   10.6110  -10.5187    0.0000 C   0  0  0  0  0  0  0  0  0  0  0  0
   10.3505   -9.0414    0.0000 C   0  0  0  0  0  0  0  0  0  0  0  0
    7.4410  -11.1265    0.0000 C   0  0  0  0  0  0  0  0  0  0  0  0
    6.6910  -12.4255    0.0000 C   0  0  0  0  0  0  0  0  0  0  0  0
    1.5314  -14.2376    0.0000 N   0  0  0  0  0  0  0  0  0  0  0  0
    0.3824  -13.2734    0.0000 P   0  0  0  0  0  0  0  0  0  0  0  0
   -1.0272  -12.7604    0.0000 O   0  0  0  0  0  0  0  0  0  0  0  0
   -2.1763  -13.7246    0.0000 C   0  0  0  0  0  0  0  0  0  0  0  0
   -3.5858  -13.2115    0.0000 C   0  0  0  0  0  0  0  0  0  0  0  0
   -4.7349  -14.1757    0.0000 C   0  0  0  0  0  0  0  0  0  0  0  0
   -4.4744  -15.6529    0.0000 C   0  0  0  0  0  0  0  0  0  0  0  0
   -5.6235  -16.6171    0.0000 C   0  0  0  0  0  0  0  0  0  0  0  0
   -7.0330  -16.1041    0.0000 N   0  0  0  0  0  0  0  0  0  0  0  0
   -8.1821  -17.0683    0.0000 C   0  0  0  0  0  0  0  0  0  0  0  0
   -9.5916  -16.5552    0.0000 C   0  0  0  0  0  0  0  0  0  0  0  0
  -10.7407  -17.5194    0.0000 C   0  0  0  0  0  0  0  0  0  0  0  0
  -10.4802  -18.9966    0.0000 C   0  0  0  0  0  0  0  0  0  0  0  0
  -11.6293  -19.9608    0.0000 O   0  0  0  0  0  0  0  0  0  0  0  0
   -9.0707  -19.5097    0.0000 C   0  0  0  0  0  0  0  0  0  0  0  0
   -7.9216  -18.5455    0.0000 C   0  0  0  0  0  0  0  0  0  0  0  0
   -5.3630  -18.0943    0.0000 P   0  0  0  0  0  0  0  0  0  0  0  0
   -3.9534  -17.5813    0.0000 O   0  0  0  0  0  0  0  0  0  0  0  0
   -6.8630  -18.0943    0.0000 O   0  0  0  0  0  0  0  0  0  0  0  0
   -7.6130  -19.3934    0.0000 C   0  0  0  0  0  0  0  0  0  0  0  0
   -9.1130  -19.3934    0.0000 C   0  0  0  0  0  0  0  0  0  0  0  0
   -9.8630  -20.6924    0.0000 C   0  0  0  0  0  0  0  0  0  0  0  0
   -9.1130  -21.9914    0.0000 C   0  0  0  0  0  0  0  0  0  0  0  0
   -7.6130  -21.9914    0.0000 C   0  0  0  0  0  0  0  0  0  0  0  0
   -6.8630  -20.6924    0.0000 C   0  0  0  0  0  0  0  0  0  0  0  0
   -5.3630  -20.6924    0.0000 C   0  0  0  0  0  0  0  0  0  0  0  0
   -4.6130  -21.9914    0.0000 C   0  0  0  0  0  0  0  0  0  0  0  0
   -3.1130  -21.9914    0.0000 C   0  0  0  0  0  0  0  0  0  0  0  0
   -2.3630  -20.6924    0.0000 C   0  0  0  0  0  0  0  0  0  0  0  0
   -3.1130  -19.3934    0.0000 C   0  0  0  0  0  0  0  0  0  0  0  0
   -4.6130  -19.3934    0.0000 C   0  0  0  0  0  0  0  0  0  0  0  0
   -3.0648  -16.1660    0.0000 C   0  0  0  0  0  0  0  0  0  0  0  0
   -1.9158  -15.2018    0.0000 C   0  0  0  0  0  0  0  0  0  0  0  0
   -0.3676  -14.5725    0.0000 O   0  0  0  0  0  0  0  0  0  0  0  0
   -1.8676  -14.5725    0.0000 C   0  0  0  0  0  0  0  0  0  0  0  0
   -2.6176  -13.2734    0.0000 C   0  0  0  0  0  0  0  0  0  0  0  0
   -4.1176  -13.2734    0.0000 C   0  0  0  0  0  0  0  0  0  0  0  0
   -4.8676  -14.5725    0.0000 C   0  0  0  0  0  0  0  0  0  0  0  0
   -6.3676  -14.5725    0.0000 C   0  0  0  0  0  0  0  0  0  0  0  0
   -7.1176  -13.2734    0.0000 N   0  0  0  0  0  0  0  0  0  0  0  0
   -8.6176  -13.2734    0.0000 C   0  0  0  0  0  0  0  0  0  0  0  0
   -9.3676  -11.9744    0.0000 C   0  0  0  0  0  0  0  0  0  0  0  0
  -10.8676  -11.9744    0.0000 C   0  0  0  0  0  0  0  0  0  0  0  0
  -11.6176  -13.2734    0.0000 C   0  0  0  0  0  0  0  0  0  0  0  0
  -13.1176  -13.2734    0.0000 O   0  0  0  0  0  0  0  0  0  0  0  0
  -10.8676  -14.5725    0.0000 C   0  0  0  0  0  0  0  0  0  0  0  0
   -9.3676  -14.5725    0.0000 C   0  0  0  0  0  0  0  0  0  0  0  0
   -7.1176  -15.8715    0.0000 P   0  0  0  0  0  0  0  0  0  0  0  0
   -5.8741  -16.7103    0.0000 O   0  0  0  0  0  0  0  0  0  0  0  0
   -8.2667  -14.9073    0.0000 O   0  0  0  0  0  0  0  0  0  0  0  0
   -9.6763  -15.4203    0.0000 C   0  0  0  0  0  0  0  0  0  0  0  0
  -10.8253  -14.4562    0.0000 C   0  0  0  0  0  0  0  0  0  0  0  0
  -12.2349  -14.9692    0.0000 C   0  0  0  0  0  0  0  0  0  0  0  0
  -12.4953  -16.4464    0.0000 C   0  0  0  0  0  0  0  0  0  0  0  0
  -11.3463  -17.4106    0.0000 C   0  0  0  0  0  0  0  0  0  0  0  0
   -9.9367  -16.8976    0.0000 C   0  0  0  0  0  0  0  0  0  0  0  0
   -8.7877  -17.8617    0.0000 C   0  0  0  0  0  0  0  0  0  0  0  0
   -9.0481  -19.3389    0.0000 C   0  0  0  0  0  0  0  0  0  0  0  0
   -7.8991  -20.3031    0.0000 C   0  0  0  0  0  0  0  0  0  0  0  0
   -6.4895  -19.7901    0.0000 C   0  0  0  0  0  0  0  0  0  0  0  0
   -6.2291  -18.3129    0.0000 C   0  0  0  0  0  0  0  0  0  0  0  0
   -7.3781  -17.3487    0.0000 C   0  0  0  0  0  0  0  0  0  0  0  0
   -4.1176  -15.8715    0.0000 C   0  0  0  0  0  0  0  0  0  0  0  0
   -2.6176  -15.8715    0.0000 C   0  0  0  0  0  0  0  0  0  0  0  0
    0.6428  -11.7962    0.0000 N   0  0  0  0  0  0  0  0  0  0  0  0
   -0.9476  -11.2832    0.0000 C   0  0  0  0  0  0  0  0  0  0  0  0
   -2.4476  -11.2832    0.0000 C   0  0  0  0  0  0  0  0  0  0  0  0
   -5.4476   -8.6851    0.0000 P   0  0  0  0  0  0  0  0  0  0  0  0
   -4.0381   -8.1721    0.0000 O   0  0  0  0  0  0  0  0  0  0  0  0
   -6.5967   -9.6493    0.0000 O   0  0  0  0  0  0  0  0  0  0  0  0
   -8.0062   -9.1362    0.0000 C   0  0  0  0  0  0  0  0  0  0  0  0
   -9.1553  -10.1004    0.0000 C   0  0  0  0  0  0  0  0  0  0  0  0
  -10.5648   -9.5874    0.0000 C   0  0  0  0  0  0  0  0  0  0  0  0
  -10.8253   -8.1102    0.0000 C   0  0  0  0  0  0  0  0  0  0  0  0
   -9.6763   -7.1460    0.0000 C   0  0  0  0  0  0  0  0  0  0  0  0
   -8.2667   -7.6590    0.0000 C   0  0  0  0  0  0  0  0  0  0  0  0
   -7.1176   -6.6949    0.0000 C   0  0  0  0  0  0  0  0  0  0  0  0
   -7.3781   -5.2176    0.0000 C   0  0  0  0  0  0  0  0  0  0  0  0
   -6.2291   -4.2535    0.0000 C   0  0  0  0  0  0  0  0  0  0  0  0
   -4.8195   -4.7665    0.0000 C   0  0  0  0  0  0  0  0  0  0  0  0
   -4.5590   -6.2437    0.0000 C   0  0  0  0  0  0  0  0  0  0  0  0
   -5.7081   -7.2079    0.0000 C   0  0  0  0  0  0  0  0  0  0  0  0
  1  2  1  0
  2  3  1  0
  3  4  2  0
  4  5  1  0
  5  6  2  0
  6  7  1  0
  6  8  1  0
  8  9  2  0
  2 10  1  0
 10 11  1  0
 11 12  2  0
 12 13  1  0
 13 14  2  0
 14 15  1  0
 15 16  1  0
 16 17  1  0
 17 18  1  0
 18 19  2  0
 19 20  1  0
 20 21  2  0
 21 22  1  0
 22 23  1  0
 23 24  1  0
 24 25  2  0
 25 26  1  0
 26 27  2  0
 27 28  1  0
 27 29  1  0
 29 30  2  0
 22 31  1  0
 31 32  2  0
 31 33  1  0
 33 34  1  0
 34 35  2  0
 35 36  1  0
 36 37  2  0
 37 38  1  0
 38 39  2  0
 39 40  1  0
 40 41  2  0
 41 42  1  0
 42 43  2  0
 43 44  1  0
 44 45  2  0
 21 46  1  0
 46 47  2  0
 16 48  2  0
 48 49  1  0
 49 50  1  0
 50 51  1  0
 51 52  2  0
 52 53  1  0
 53 54  2  0
 54 55  1  0
 55 56  1  0
 56 57  1  0
 57 58  2  0
 58 59  1  0
 59 60  2  0
 60 61  1  0
 60 62  1  0
 62 63  2  0
 55 64  1  0
 64 65  2  0
 64 66  1  0
 66 67  1  0
 67 68  2  0
 68 69  1  0
 69 70  2  0
 70 71  1  0
 71 72  2  0
 72 73  1  0
 73 74  2  0
 74 75  1  0
 75 76  2  0
 76 77  1  0
 77 78  2  0
 54 79  1  0
 79 80  2  0
 49 81  1  0
 81 82  1  0
 82 83  2  0
 83 84  1  0
 84 85  2  0
 85 86  1  0
 86 87  1  0
 87 88  1  0
 88 89  2  0
 89 90  1  0
 90 91  2  0
 91 92  1  0
 91 93  1  0
 93 94  2  0
 86 95  1  0
 95 96  2  0
 95 97  1  0
 97 98  1  0
 98 99  2  0
 99100  1  0
100101  2  0
101102  1  0
102103  2  0
103104  1  0
104105  2  0
105106  1  0
106107  2  0
107108  1  0
108109  2  0
 85110  1  0
110111  2  0
 49112  2  0
112113  1  0
113114  1  0
114115  1  0
115116  2  0
116117  1  0
117118  2  0
118119  1  0
119120  1  0
120121  1  0
121122  2  0
122123  1  0
123124  2  0
124125  1  0
124126  1  0
126127  2  0
119128  1  0
128129  2  0
128130  1  0
130131  1  0
131132  2  0
132133  1  0
133134  2  0
134135  1  0
135136  2  0
136137  1  0
137138  2  0
138139  1  0
139140  2  0
140141  1  0
141142  2  0
118143  1  0
143144  2  0
113145  1  0
145146  1  0
146147  2  0
147148  1  0
148149  2  0
149150  1  0
150151  1  0
151152  1  0
152153  2  0
153154  1  0
154155  2  0
155156  1  0
155157  1  0
157158  2  0
150159  1  0
159160  2  0
159161  1  0
161162  1  0
162163  2  0
163164  1  0
164165  2  0
165166  1  0
166167  2  0
167168  1  0
168169  2  0
169170  1  0
170171  2  0
171172  1  0
172173  2  0
149174  1  0
174175  2  0
113176  2  0
 14177  1  0
177178  2  0
 10179  1  0
179180  2  0
179181  1  0
181182  1  0
182183  2  0
183184  1  0
184185  2  0
185186  1  0
186187  2  0
187188  1  0
188189  2  0
189190  1  0
190191  2  0
191192  1  0
192193  2  0
  9  3  1  0
178 11  1  0
193179  1  0
176 16  1  0
187182  1  0
193188  1  0
 47 18  1  0
 80 51  1  0
111 82  1  0
144115  1  0
175146  1  0
 30 24  1  0
 45 31  1  0
 63 57  1  0
 78 64  1  0
 94 88  1  0
109 95  1  0
127121  1  0
142128  1  0
158152  1  0
173159  1  0
 39 34  1  0
 45 40  1  0
 72 67  1  0
 78 73  1  0
103 98  1  0
109104  1  0
136131  1  0
142137  1  0
167162  1  0
173168  1  0
M  END
>  <Candidate_ID>  (38) 
CAND_R2_038

>  <Candidate_Name>  (38) 
CTP-DOPO-NH-methyl

>  <Parent_Seed_ID>  (38) 
TRAIN_041

>  <Parent_Name>  (38) 
CTP-DOPO

>  <Transformation_Code>  (38) 
NH_methyl

>  <Design_Family>  (38) 
P-N

>  <Preparation_Type>  (38) 
Additive

>  <Synthesis_Level>  (38) 
C

>  <Parent_Tanimoto_r3>  (38) 
0.7731958762886598

>  <Max_Train_Tanimoto_r3>  (38) 
0.7731958762886598

>  <Risk_Flags>  (38) 
high molecular weight; high DOPO count; exploratory only; excluded from formal screening

$$$$
CAND_R2_039 | CTP-DOPO-NH-methyl-all
     RDKit          2D

198228  0  0  0  0  0  0  0  0999 V2000
   -6.9031  -10.9202    0.0000 C   0  0  0  0  0  0  0  0  0  0  0  0
   -5.4476  -11.2832    0.0000 N   0  0  0  0  0  0  0  0  0  0  0  0
   -4.6976  -12.5822    0.0000 C   0  0  0  0  0  0  0  0  0  0  0  0
   -3.1976  -12.5822    0.0000 C   0  0  0  0  0  0  0  0  0  0  0  0
   -2.4476  -13.8812    0.0000 C   0  0  0  0  0  0  0  0  0  0  0  0
   -3.1976  -15.1803    0.0000 C   0  0  0  0  0  0  0  0  0  0  0  0
   -3.1455  -16.6794    0.0000 O   0  0  0  0  0  0  0  0  0  0  0  0
   -4.6976  -15.1803    0.0000 C   0  0  0  0  0  0  0  0  0  0  0  0
   -5.4476  -13.8812    0.0000 C   0  0  0  0  0  0  0  0  0  0  0  0
   -4.6976   -9.9841    0.0000 C   0  0  0  0  0  0  0  0  0  0  0  0
   -3.1976   -9.9841    0.0000 C   0  0  0  0  0  0  0  0  0  0  0  0
   -2.4476   -8.6851    0.0000 C   0  0  0  0  0  0  0  0  0  0  0  0
   -0.9476   -8.6851    0.0000 C   0  0  0  0  0  0  0  0  0  0  0  0
   -0.1976   -9.9841    0.0000 C   0  0  0  0  0  0  0  0  0  0  0  0
    1.3024   -9.9841    0.0000 O   0  0  0  0  0  0  0  0  0  0  0  0
    2.0524  -11.2832    0.0000 P   0  0  0  0  0  0  0  0  0  0  0  0
    3.2014  -10.3190    0.0000 O   0  0  0  0  0  0  0  0  0  0  0  0
    2.9410   -8.8418    0.0000 C   0  0  0  0  0  0  0  0  0  0  0  0
    1.5314   -8.3287    0.0000 C   0  0  0  0  0  0  0  0  0  0  0  0
    1.2709   -6.8515    0.0000 C   0  0  0  0  0  0  0  0  0  0  0  0
    2.4200   -5.8874    0.0000 C   0  0  0  0  0  0  0  0  0  0  0  0
    2.1595   -4.4101    0.0000 C   0  0  0  0  0  0  0  0  0  0  0  0
    3.3086   -3.4460    0.0000 N   0  0  0  0  0  0  0  0  0  0  0  0
    4.7181   -3.9590    0.0000 C   0  0  0  0  0  0  0  0  0  0  0  0
    3.0481   -1.9688    0.0000 C   0  0  0  0  0  0  0  0  0  0  0  0
    4.1972   -1.0046    0.0000 C   0  0  0  0  0  0  0  0  0  0  0  0
    3.9367    0.4726    0.0000 C   0  0  0  0  0  0  0  0  0  0  0  0
    2.5272    0.9857    0.0000 C   0  0  0  0  0  0  0  0  0  0  0  0
    2.2667    2.4629    0.0000 O   0  0  0  0  0  0  0  0  0  0  0  0
    1.3781    0.0215    0.0000 C   0  0  0  0  0  0  0  0  0  0  0  0
    1.6386   -1.4557    0.0000 C   0  0  0  0  0  0  0  0  0  0  0  0
    0.7500   -3.8971    0.0000 P   0  0  0  0  0  0  0  0  0  0  0  0
    1.5000   -2.5981    0.0000 O   0  0  0  0  0  0  0  0  0  0  0  0
    0.4895   -5.3743    0.0000 O   0  0  0  0  0  0  0  0  0  0  0  0
   -0.9200   -5.8874    0.0000 C   0  0  0  0  0  0  0  0  0  0  0  0
   -1.1805   -7.3646    0.0000 C   0  0  0  0  0  0  0  0  0  0  0  0
   -2.5900   -7.8776    0.0000 C   0  0  0  0  0  0  0  0  0  0  0  0
   -3.7391   -6.9134    0.0000 C   0  0  0  0  0  0  0  0  0  0  0  0
   -3.4786   -5.4362    0.0000 C   0  0  0  0  0  0  0  0  0  0  0  0
   -2.0691   -4.9232    0.0000 C   0  0  0  0  0  0  0  0  0  0  0  0
   -1.8086   -3.4460    0.0000 C   0  0  0  0  0  0  0  0  0  0  0  0
   -2.9577   -2.4818    0.0000 C   0  0  0  0  0  0  0  0  0  0  0  0
   -2.6972   -1.0046    0.0000 C   0  0  0  0  0  0  0  0  0  0  0  0
   -1.2877   -0.4915    0.0000 C   0  0  0  0  0  0  0  0  0  0  0  0
   -0.1386   -1.4557    0.0000 C   0  0  0  0  0  0  0  0  0  0  0  0
   -0.3991   -2.9329    0.0000 C   0  0  0  0  0  0  0  0  0  0  0  0
    3.8296   -6.4004    0.0000 C   0  0  0  0  0  0  0  0  0  0  0  0
    4.0900   -7.8776    0.0000 C   0  0  0  0  0  0  0  0  0  0  0  0
    3.2014  -12.2474    0.0000 N   0  0  0  0  0  0  0  0  0  0  0  0
    2.9410  -13.7246    0.0000 P   0  0  0  0  0  0  0  0  0  0  0  0
    3.2014  -15.2018    0.0000 O   0  0  0  0  0  0  0  0  0  0  0  0
    4.6110  -15.7148    0.0000 C   0  0  0  0  0  0  0  0  0  0  0  0
    4.8714  -17.1920    0.0000 C   0  0  0  0  0  0  0  0  0  0  0  0
    6.2810  -17.7050    0.0000 C   0  0  0  0  0  0  0  0  0  0  0  0
    7.4300  -16.7409    0.0000 C   0  0  0  0  0  0  0  0  0  0  0  0
    8.8396  -17.2539    0.0000 C   0  0  0  0  0  0  0  0  0  0  0  0
    9.1001  -18.7311    0.0000 N   0  0  0  0  0  0  0  0  0  0  0  0
   10.5096  -19.2441    0.0000 C   0  0  0  0  0  0  0  0  0  0  0  0
    7.9510  -19.6953    0.0000 C   0  0  0  0  0  0  0  0  0  0  0  0
    6.5415  -19.1823    0.0000 C   0  0  0  0  0  0  0  0  0  0  0  0
    5.3924  -20.1464    0.0000 C   0  0  0  0  0  0  0  0  0  0  0  0
    5.6529  -21.6237    0.0000 C   0  0  0  0  0  0  0  0  0  0  0  0
    4.5038  -22.5878    0.0000 O   0  0  0  0  0  0  0  0  0  0  0  0
    7.0624  -22.1367    0.0000 C   0  0  0  0  0  0  0  0  0  0  0  0
    8.2115  -21.1725    0.0000 C   0  0  0  0  0  0  0  0  0  0  0  0
    9.9887  -16.2897    0.0000 P   0  0  0  0  0  0  0  0  0  0  0  0
    8.8396  -15.3255    0.0000 O   0  0  0  0  0  0  0  0  0  0  0  0
   10.7387  -17.5888    0.0000 O   0  0  0  0  0  0  0  0  0  0  0  0
   12.2387  -17.5888    0.0000 C   0  0  0  0  0  0  0  0  0  0  0  0
   12.9887  -18.8878    0.0000 C   0  0  0  0  0  0  0  0  0  0  0  0
   14.4887  -18.8878    0.0000 C   0  0  0  0  0  0  0  0  0  0  0  0
   15.2387  -17.5888    0.0000 C   0  0  0  0  0  0  0  0  0  0  0  0
   14.4887  -16.2897    0.0000 C   0  0  0  0  0  0  0  0  0  0  0  0
   12.9887  -16.2897    0.0000 C   0  0  0  0  0  0  0  0  0  0  0  0
   12.2387  -14.9907    0.0000 C   0  0  0  0  0  0  0  0  0  0  0  0
   12.9887  -13.6916    0.0000 C   0  0  0  0  0  0  0  0  0  0  0  0
   12.2387  -12.3926    0.0000 C   0  0  0  0  0  0  0  0  0  0  0  0
   10.7387  -12.3926    0.0000 C   0  0  0  0  0  0  0  0  0  0  0  0
    9.9887  -13.6916    0.0000 C   0  0  0  0  0  0  0  0  0  0  0  0
   10.7387  -14.9907    0.0000 C   0  0  0  0  0  0  0  0  0  0  0  0
    7.1696  -15.2637    0.0000 C   0  0  0  0  0  0  0  0  0  0  0  0
    5.7600  -14.7506    0.0000 C   0  0  0  0  0  0  0  0  0  0  0  0
    4.4410  -13.7246    0.0000 O   0  0  0  0  0  0  0  0  0  0  0  0
    5.1910  -12.4255    0.0000 C   0  0  0  0  0  0  0  0  0  0  0  0
    4.4410  -11.1265    0.0000 C   0  0  0  0  0  0  0  0  0  0  0  0
    5.1910   -9.8275    0.0000 C   0  0  0  0  0  0  0  0  0  0  0  0
    6.6910   -9.8275    0.0000 C   0  0  0  0  0  0  0  0  0  0  0  0
    7.4410   -8.5284    0.0000 C   0  0  0  0  0  0  0  0  0  0  0  0
    6.6910   -7.2294    0.0000 N   0  0  0  0  0  0  0  0  0  0  0  0
    5.1910   -7.2294    0.0000 C   0  0  0  0  0  0  0  0  0  0  0  0
    7.4410   -5.9303    0.0000 C   0  0  0  0  0  0  0  0  0  0  0  0
    8.9410   -5.9303    0.0000 C   0  0  0  0  0  0  0  0  0  0  0  0
    9.6910   -4.6313    0.0000 C   0  0  0  0  0  0  0  0  0  0  0  0
    8.9410   -3.3323    0.0000 C   0  0  0  0  0  0  0  0  0  0  0  0
    9.6910   -2.0332    0.0000 O   0  0  0  0  0  0  0  0  0  0  0  0
    7.4410   -3.3323    0.0000 C   0  0  0  0  0  0  0  0  0  0  0  0
    6.6910   -4.6313    0.0000 C   0  0  0  0  0  0  0  0  0  0  0  0
    8.9410   -8.5284    0.0000 P   0  0  0  0  0  0  0  0  0  0  0  0
    8.6805   -7.0512    0.0000 O   0  0  0  0  0  0  0  0  0  0  0  0
    8.6805  -10.0056    0.0000 O   0  0  0  0  0  0  0  0  0  0  0  0
    9.8296  -10.9698    0.0000 C   0  0  0  0  0  0  0  0  0  0  0  0
    9.5691  -12.4470    0.0000 C   0  0  0  0  0  0  0  0  0  0  0  0
   10.7181  -13.4112    0.0000 C   0  0  0  0  0  0  0  0  0  0  0  0
   12.1277  -12.8982    0.0000 C   0  0  0  0  0  0  0  0  0  0  0  0
   12.3882  -11.4210    0.0000 C   0  0  0  0  0  0  0  0  0  0  0  0
   11.2391  -10.4568    0.0000 C   0  0  0  0  0  0  0  0  0  0  0  0
   11.4996   -8.9796    0.0000 C   0  0  0  0  0  0  0  0  0  0  0  0
   12.9091   -8.4665    0.0000 C   0  0  0  0  0  0  0  0  0  0  0  0
   13.1696   -6.9893    0.0000 C   0  0  0  0  0  0  0  0  0  0  0  0
   12.0205   -6.0251    0.0000 C   0  0  0  0  0  0  0  0  0  0  0  0
   10.6110   -6.5382    0.0000 C   0  0  0  0  0  0  0  0  0  0  0  0
   10.3505   -8.0154    0.0000 C   0  0  0  0  0  0  0  0  0  0  0  0
    7.4410  -11.1265    0.0000 C   0  0  0  0  0  0  0  0  0  0  0  0
    6.6910  -12.4255    0.0000 C   0  0  0  0  0  0  0  0  0  0  0  0
    1.5314  -14.2376    0.0000 N   0  0  0  0  0  0  0  0  0  0  0  0
    0.3824  -13.2734    0.0000 P   0  0  0  0  0  0  0  0  0  0  0  0
   -1.0272  -12.7604    0.0000 O   0  0  0  0  0  0  0  0  0  0  0  0
   -2.1763  -13.7246    0.0000 C   0  0  0  0  0  0  0  0  0  0  0  0
   -3.5858  -13.2115    0.0000 C   0  0  0  0  0  0  0  0  0  0  0  0
   -4.7349  -14.1757    0.0000 C   0  0  0  0  0  0  0  0  0  0  0  0
   -4.4744  -15.6529    0.0000 C   0  0  0  0  0  0  0  0  0  0  0  0
   -5.6235  -16.6171    0.0000 C   0  0  0  0  0  0  0  0  0  0  0  0
   -7.0330  -16.1041    0.0000 N   0  0  0  0  0  0  0  0  0  0  0  0
   -8.1821  -17.0683    0.0000 C   0  0  0  0  0  0  0  0  0  0  0  0
   -7.2935  -14.6269    0.0000 C   0  0  0  0  0  0  0  0  0  0  0  0
   -6.1444  -13.6627    0.0000 C   0  0  0  0  0  0  0  0  0  0  0  0
   -6.4049  -12.1855    0.0000 C   0  0  0  0  0  0  0  0  0  0  0  0
   -7.8144  -11.6724    0.0000 C   0  0  0  0  0  0  0  0  0  0  0  0
   -8.0749  -10.1952    0.0000 O   0  0  0  0  0  0  0  0  0  0  0  0
   -8.9635  -12.6366    0.0000 C   0  0  0  0  0  0  0  0  0  0  0  0
   -8.7030  -14.1138    0.0000 C   0  0  0  0  0  0  0  0  0  0  0  0
   -5.3630  -18.0943    0.0000 P   0  0  0  0  0  0  0  0  0  0  0  0
   -3.9534  -17.5813    0.0000 O   0  0  0  0  0  0  0  0  0  0  0  0
   -6.8630  -18.0943    0.0000 O   0  0  0  0  0  0  0  0  0  0  0  0
   -7.6130  -19.3934    0.0000 C   0  0  0  0  0  0  0  0  0  0  0  0
   -9.1130  -19.3934    0.0000 C   0  0  0  0  0  0  0  0  0  0  0  0
   -9.8630  -20.6924    0.0000 C   0  0  0  0  0  0  0  0  0  0  0  0
   -9.1130  -21.9914    0.0000 C   0  0  0  0  0  0  0  0  0  0  0  0
   -7.6130  -21.9914    0.0000 C   0  0  0  0  0  0  0  0  0  0  0  0
   -6.8630  -20.6924    0.0000 C   0  0  0  0  0  0  0  0  0  0  0  0
   -5.3630  -20.6924    0.0000 C   0  0  0  0  0  0  0  0  0  0  0  0
   -4.6130  -21.9914    0.0000 C   0  0  0  0  0  0  0  0  0  0  0  0
   -3.1130  -21.9914    0.0000 C   0  0  0  0  0  0  0  0  0  0  0  0
   -2.3630  -20.6924    0.0000 C   0  0  0  0  0  0  0  0  0  0  0  0
   -3.1130  -19.3934    0.0000 C   0  0  0  0  0  0  0  0  0  0  0  0
   -4.6130  -19.3934    0.0000 C   0  0  0  0  0  0  0  0  0  0  0  0
   -3.0648  -16.1660    0.0000 C   0  0  0  0  0  0  0  0  0  0  0  0
   -1.9158  -15.2018    0.0000 C   0  0  0  0  0  0  0  0  0  0  0  0
   -0.3676  -14.5725    0.0000 O   0  0  0  0  0  0  0  0  0  0  0  0
   -1.8676  -14.5725    0.0000 C   0  0  0  0  0  0  0  0  0  0  0  0
   -2.6176  -13.2734    0.0000 C   0  0  0  0  0  0  0  0  0  0  0  0
   -4.1176  -13.2734    0.0000 C   0  0  0  0  0  0  0  0  0  0  0  0
   -4.8676  -14.5725    0.0000 C   0  0  0  0  0  0  0  0  0  0  0  0
   -6.3676  -14.5725    0.0000 C   0  0  0  0  0  0  0  0  0  0  0  0
   -7.1176  -13.2734    0.0000 N   0  0  0  0  0  0  0  0  0  0  0  0
   -8.6176  -13.2734    0.0000 C   0  0  0  0  0  0  0  0  0  0  0  0
   -6.3676  -11.9744    0.0000 C   0  0  0  0  0  0  0  0  0  0  0  0
   -4.8676  -11.9744    0.0000 C   0  0  0  0  0  0  0  0  0  0  0  0
   -4.1176  -10.6753    0.0000 C   0  0  0  0  0  0  0  0  0  0  0  0
   -4.8676   -9.3763    0.0000 C   0  0  0  0  0  0  0  0  0  0  0  0
   -3.9649   -8.1784    0.0000 O   0  0  0  0  0  0  0  0  0  0  0  0
   -6.3676   -9.3763    0.0000 C   0  0  0  0  0  0  0  0  0  0  0  0
   -7.1176  -10.6753    0.0000 C   0  0  0  0  0  0  0  0  0  0  0  0
   -7.1176  -15.8715    0.0000 P   0  0  0  0  0  0  0  0  0  0  0  0
   -5.8741  -16.7103    0.0000 O   0  0  0  0  0  0  0  0  0  0  0  0
   -8.2667  -14.9073    0.0000 O   0  0  0  0  0  0  0  0  0  0  0  0
   -9.6763  -15.4203    0.0000 C   0  0  0  0  0  0  0  0  0  0  0  0
  -10.8253  -14.4562    0.0000 C   0  0  0  0  0  0  0  0  0  0  0  0
  -12.2349  -14.9692    0.0000 C   0  0  0  0  0  0  0  0  0  0  0  0
  -12.4953  -16.4464    0.0000 C   0  0  0  0  0  0  0  0  0  0  0  0
  -11.3463  -17.4106    0.0000 C   0  0  0  0  0  0  0  0  0  0  0  0
   -9.9367  -16.8976    0.0000 C   0  0  0  0  0  0  0  0  0  0  0  0
   -8.7877  -17.8617    0.0000 C   0  0  0  0  0  0  0  0  0  0  0  0
   -9.0481  -19.3389    0.0000 C   0  0  0  0  0  0  0  0  0  0  0  0
   -7.8991  -20.3031    0.0000 C   0  0  0  0  0  0  0  0  0  0  0  0
   -6.4895  -19.7901    0.0000 C   0  0  0  0  0  0  0  0  0  0  0  0
   -6.2291  -18.3129    0.0000 C   0  0  0  0  0  0  0  0  0  0  0  0
   -7.3781  -17.3487    0.0000 C   0  0  0  0  0  0  0  0  0  0  0  0
   -4.1176  -15.8715    0.0000 C   0  0  0  0  0  0  0  0  0  0  0  0
   -2.6176  -15.8715    0.0000 C   0  0  0  0  0  0  0  0  0  0  0  0
    0.6428  -11.7962    0.0000 N   0  0  0  0  0  0  0  0  0  0  0  0
   -0.9476  -11.2832    0.0000 C   0  0  0  0  0  0  0  0  0  0  0  0
   -2.4476  -11.2832    0.0000 C   0  0  0  0  0  0  0  0  0  0  0  0
   -5.4476   -8.6851    0.0000 P   0  0  0  0  0  0  0  0  0  0  0  0
   -4.1111   -8.0041    0.0000 O   0  0  0  0  0  0  0  0  0  0  0  0
   -6.5967   -9.6493    0.0000 O   0  0  0  0  0  0  0  0  0  0  0  0
   -8.0062   -9.1362    0.0000 C   0  0  0  0  0  0  0  0  0  0  0  0
   -9.1553  -10.1004    0.0000 C   0  0  0  0  0  0  0  0  0  0  0  0
  -10.5648   -9.5874    0.0000 C   0  0  0  0  0  0  0  0  0  0  0  0
  -10.8253   -8.1102    0.0000 C   0  0  0  0  0  0  0  0  0  0  0  0
   -9.6763   -7.1460    0.0000 C   0  0  0  0  0  0  0  0  0  0  0  0
   -8.2667   -7.6590    0.0000 C   0  0  0  0  0  0  0  0  0  0  0  0
   -7.1176   -6.6949    0.0000 C   0  0  0  0  0  0  0  0  0  0  0  0
   -7.3781   -5.2176    0.0000 C   0  0  0  0  0  0  0  0  0  0  0  0
   -6.2291   -4.2535    0.0000 C   0  0  0  0  0  0  0  0  0  0  0  0
   -4.8195   -4.7665    0.0000 C   0  0  0  0  0  0  0  0  0  0  0  0
   -4.5590   -6.2437    0.0000 C   0  0  0  0  0  0  0  0  0  0  0  0
   -5.7081   -7.2079    0.0000 C   0  0  0  0  0  0  0  0  0  0  0  0
  1  2  1  0
  2  3  1  0
  3  4  2  0
  4  5  1  0
  5  6  2  0
  6  7  1  0
  6  8  1  0
  8  9  2  0
  2 10  1  0
 10 11  1  0
 11 12  2  0
 12 13  1  0
 13 14  2  0
 14 15  1  0
 15 16  1  0
 16 17  1  0
 17 18  1  0
 18 19  2  0
 19 20  1  0
 20 21  2  0
 21 22  1  0
 22 23  1  0
 23 24  1  0
 23 25  1  0
 25 26  2  0
 26 27  1  0
 27 28  2  0
 28 29  1  0
 28 30  1  0
 30 31  2  0
 22 32  1  0
 32 33  2  0
 32 34  1  0
 34 35  1  0
 35 36  2  0
 36 37  1  0
 37 38  2  0
 38 39  1  0
 39 40  2  0
 40 41  1  0
 41 42  2  0
 42 43  1  0
 43 44  2  0
 44 45  1  0
 45 46  2  0
 21 47  1  0
 47 48  2  0
 16 49  2  0
 49 50  1  0
 50 51  1  0
 51 52  1  0
 52 53  2  0
 53 54  1  0
 54 55  2  0
 55 56  1  0
 56 57  1  0
 57 58  1  0
 57 59  1  0
 59 60  2  0
 60 61  1  0
 61 62  2  0
 62 63  1  0
 62 64  1  0
 64 65  2  0
 56 66  1  0
 66 67  2  0
 66 68  1  0
 68 69  1  0
 69 70  2  0
 70 71  1  0
 71 72  2  0
 72 73  1  0
 73 74  2  0
 74 75  1  0
 75 76  2  0
 76 77  1  0
 77 78  2  0
 78 79  1  0
 79 80  2  0
 55 81  1  0
 81 82  2  0
 50 83  1  0
 83 84  1  0
 84 85  2  0
 85 86  1  0
 86 87  2  0
 87 88  1  0
 88 89  1  0
 89 90  1  0
 89 91  1  0
 91 92  2  0
 92 93  1  0
 93 94  2  0
 94 95  1  0
 94 96  1  0
 96 97  2  0
 88 98  1  0
 98 99  2  0
 98100  1  0
100101  1  0
101102  2  0
102103  1  0
103104  2  0
104105  1  0
105106  2  0
106107  1  0
107108  2  0
108109  1  0
109110  2  0
110111  1  0
111112  2  0
 87113  1  0
113114  2  0
 50115  2  0
115116  1  0
116117  1  0
117118  1  0
118119  2  0
119120  1  0
120121  2  0
121122  1  0
122123  1  0
123124  1  0
123125  1  0
125126  2  0
126127  1  0
127128  2  0
128129  1  0
128130  1  0
130131  2  0
122132  1  0
132133  2  0
132134  1  0
134135  1  0
135136  2  0
136137  1  0
137138  2  0
138139  1  0
139140  2  0
140141  1  0
141142  2  0
142143  1  0
143144  2  0
144145  1  0
145146  2  0
121147  1  0
147148  2  0
116149  1  0
149150  1  0
150151  2  0
151152  1  0
152153  2  0
153154  1  0
154155  1  0
155156  1  0
155157  1  0
157158  2  0
158159  1  0
159160  2  0
160161  1  0
160162  1  0
162163  2  0
154164  1  0
164165  2  0
164166  1  0
166167  1  0
167168  2  0
168169  1  0
169170  2  0
170171  1  0
171172  2  0
172173  1  0
173174  2  0
174175  1  0
175176  2  0
176177  1  0
177178  2  0
153179  1  0
179180  2  0
116181  2  0
 14182  1  0
182183  2  0
 10184  1  0
184185  2  0
184186  1  0
186187  1  0
187188  2  0
188189  1  0
189190  2  0
190191  1  0
191192  2  0
192193  1  0
193194  2  0
194195  1  0
195196  2  0
196197  1  0
197198  2  0
  9  3  1  0
183 11  1  0
198184  1  0
181 16  1  0
192187  1  0
198193  1  0
 48 18  1  0
 82 52  1  0
114 84  1  0
148118  1  0
180150  1  0
 31 25  1  0
 46 32  1  0
 65 59  1  0
 80 66  1  0
 97 91  1  0
112 98  1  0
131125  1  0
146132  1  0
163157  1  0
178164  1  0
 40 35  1  0
 46 41  1  0
 74 69  1  0
 80 75  1  0
106101  1  0
112107  1  0
140135  1  0
146141  1  0
172167  1  0
178173  1  0
M  END
>  <Candidate_ID>  (39) 
CAND_R2_039

>  <Candidate_Name>  (39) 
CTP-DOPO-NH-methyl-all

>  <Parent_Seed_ID>  (39) 
TRAIN_041

>  <Parent_Name>  (39) 
CTP-DOPO

>  <Transformation_Code>  (39) 
NH_methyl_all

>  <Design_Family>  (39) 
P-N

>  <Preparation_Type>  (39) 
Additive

>  <Synthesis_Level>  (39) 
C

>  <Parent_Tanimoto_r3>  (39) 
0.5773195876288659

>  <Max_Train_Tanimoto_r3>  (39) 
0.5773195876288659

>  <Risk_Flags>  (39) 
high molecular weight; high DOPO count; large structural change from parent; candidate may be outside strict in-domain threshold; exploratory only; excluded from formal screening

$$$$
CAND_R2_040 | CTP-DOPO-NH-hydroxyethyl
     RDKit          2D

195225  0  0  0  0  0  0  0  0999 V2000
   -4.0381  -11.7962    0.0000 O   0  0  0  0  0  0  0  0  0  0  0  0
   -5.4476  -11.2832    0.0000 P   0  0  0  0  0  0  0  0  0  0  0  0
   -4.6976   -9.9841    0.0000 C   0  0  0  0  0  0  0  0  0  0  0  0
   -5.4476   -8.6851    0.0000 N   0  0  0  0  0  0  0  0  0  0  0  0
   -6.9476   -8.6851    0.0000 C   0  0  0  0  0  0  0  0  0  0  0  0
   -7.6976   -7.3861    0.0000 C   0  0  0  0  0  0  0  0  0  0  0  0
   -9.1976   -7.3861    0.0000 C   0  0  0  0  0  0  0  0  0  0  0  0
   -9.9476   -8.6851    0.0000 C   0  0  0  0  0  0  0  0  0  0  0  0
  -11.4476   -8.6851    0.0000 O   0  0  0  0  0  0  0  0  0  0  0  0
   -9.1976   -9.9841    0.0000 C   0  0  0  0  0  0  0  0  0  0  0  0
   -7.6976   -9.9841    0.0000 C   0  0  0  0  0  0  0  0  0  0  0  0
   -3.1976   -9.9841    0.0000 C   0  0  0  0  0  0  0  0  0  0  0  0
   -2.4476  -11.2832    0.0000 C   0  0  0  0  0  0  0  0  0  0  0  0
   -0.9476  -11.2832    0.0000 C   0  0  0  0  0  0  0  0  0  0  0  0
   -0.1976   -9.9841    0.0000 C   0  0  0  0  0  0  0  0  0  0  0  0
    1.3024   -9.9841    0.0000 O   0  0  0  0  0  0  0  0  0  0  0  0
    2.0524  -11.2832    0.0000 P   0  0  0  0  0  0  0  0  0  0  0  0
    3.2014  -10.3190    0.0000 O   0  0  0  0  0  0  0  0  0  0  0  0
    2.9410   -8.8418    0.0000 C   0  0  0  0  0  0  0  0  0  0  0  0
    4.0900   -7.8776    0.0000 C   0  0  0  0  0  0  0  0  0  0  0  0
    3.8296   -6.4004    0.0000 C   0  0  0  0  0  0  0  0  0  0  0  0
    2.4200   -5.8874    0.0000 C   0  0  0  0  0  0  0  0  0  0  0  0
    2.1595   -4.4101    0.0000 C   0  0  0  0  0  0  0  0  0  0  0  0
    3.3086   -3.4460    0.0000 N   0  0  0  0  0  0  0  0  0  0  0  0
    4.7181   -3.9590    0.0000 C   0  0  0  0  0  0  0  0  0  0  0  0
    4.9786   -5.4362    0.0000 C   0  0  0  0  0  0  0  0  0  0  0  0
    6.3882   -5.9492    0.0000 C   0  0  0  0  0  0  0  0  0  0  0  0
    7.5372   -4.9851    0.0000 C   0  0  0  0  0  0  0  0  0  0  0  0
    8.9468   -5.4981    0.0000 O   0  0  0  0  0  0  0  0  0  0  0  0
    7.2768   -3.5078    0.0000 C   0  0  0  0  0  0  0  0  0  0  0  0
    5.8672   -2.9948    0.0000 C   0  0  0  0  0  0  0  0  0  0  0  0
    0.7500   -3.8971    0.0000 P   0  0  0  0  0  0  0  0  0  0  0  0
    0.4895   -5.3743    0.0000 O   0  0  0  0  0  0  0  0  0  0  0  0
    1.5000   -2.5981    0.0000 O   0  0  0  0  0  0  0  0  0  0  0  0
    0.7500   -1.2990    0.0000 C   0  0  0  0  0  0  0  0  0  0  0  0
    1.5000   -0.0000    0.0000 C   0  0  0  0  0  0  0  0  0  0  0  0
    0.7500    1.2990    0.0000 C   0  0  0  0  0  0  0  0  0  0  0  0
   -0.7500    1.2990    0.0000 C   0  0  0  0  0  0  0  0  0  0  0  0
   -1.5000   -0.0000    0.0000 C   0  0  0  0  0  0  0  0  0  0  0  0
   -0.7500   -1.2990    0.0000 C   0  0  0  0  0  0  0  0  0  0  0  0
   -1.5000   -2.5981    0.0000 C   0  0  0  0  0  0  0  0  0  0  0  0
   -3.0000   -2.5981    0.0000 C   0  0  0  0  0  0  0  0  0  0  0  0
   -3.7500   -3.8971    0.0000 C   0  0  0  0  0  0  0  0  0  0  0  0
   -3.0000   -5.1962    0.0000 C   0  0  0  0  0  0  0  0  0  0  0  0
   -1.5000   -5.1962    0.0000 C   0  0  0  0  0  0  0  0  0  0  0  0
   -0.7500   -3.8971    0.0000 C   0  0  0  0  0  0  0  0  0  0  0  0
    1.2709   -6.8515    0.0000 C   0  0  0  0  0  0  0  0  0  0  0  0
    1.5314   -8.3287    0.0000 C   0  0  0  0  0  0  0  0  0  0  0  0
    3.2014  -12.2474    0.0000 N   0  0  0  0  0  0  0  0  0  0  0  0
    2.9410  -13.7246    0.0000 P   0  0  0  0  0  0  0  0  0  0  0  0
    3.2014  -15.2018    0.0000 O   0  0  0  0  0  0  0  0  0  0  0  0
    4.6110  -15.7148    0.0000 C   0  0  0  0  0  0  0  0  0  0  0  0
    4.8714  -17.1920    0.0000 C   0  0  0  0  0  0  0  0  0  0  0  0
    6.2810  -17.7050    0.0000 C   0  0  0  0  0  0  0  0  0  0  0  0
    7.4300  -16.7409    0.0000 C   0  0  0  0  0  0  0  0  0  0  0  0
    8.8396  -17.2539    0.0000 C   0  0  0  0  0  0  0  0  0  0  0  0
    9.1001  -18.7311    0.0000 N   0  0  0  0  0  0  0  0  0  0  0  0
   10.5096  -19.2441    0.0000 C   0  0  0  0  0  0  0  0  0  0  0  0
   10.7701  -20.7214    0.0000 C   0  0  0  0  0  0  0  0  0  0  0  0
   12.1796  -21.2344    0.0000 C   0  0  0  0  0  0  0  0  0  0  0  0
   13.3287  -20.2702    0.0000 C   0  0  0  0  0  0  0  0  0  0  0  0
   14.7382  -20.7832    0.0000 O   0  0  0  0  0  0  0  0  0  0  0  0
   13.0682  -18.7930    0.0000 C   0  0  0  0  0  0  0  0  0  0  0  0
   11.6587  -18.2800    0.0000 C   0  0  0  0  0  0  0  0  0  0  0  0
    9.9887  -16.2897    0.0000 P   0  0  0  0  0  0  0  0  0  0  0  0
   10.7387  -17.5888    0.0000 O   0  0  0  0  0  0  0  0  0  0  0  0
    8.8396  -15.3255    0.0000 O   0  0  0  0  0  0  0  0  0  0  0  0
    9.1001  -13.8483    0.0000 C   0  0  0  0  0  0  0  0  0  0  0  0
    7.9510  -12.8841    0.0000 C   0  0  0  0  0  0  0  0  0  0  0  0
    8.2115  -11.4069    0.0000 C   0  0  0  0  0  0  0  0  0  0  0  0
    9.6210  -10.8939    0.0000 C   0  0  0  0  0  0  0  0  0  0  0  0
   10.7701  -11.8581    0.0000 C   0  0  0  0  0  0  0  0  0  0  0  0
   10.5096  -13.3353    0.0000 C   0  0  0  0  0  0  0  0  0  0  0  0
   11.6587  -14.2995    0.0000 C   0  0  0  0  0  0  0  0  0  0  0  0
   13.0682  -13.7864    0.0000 C   0  0  0  0  0  0  0  0  0  0  0  0
   14.2173  -14.7506    0.0000 C   0  0  0  0  0  0  0  0  0  0  0  0
   13.9568  -16.2278    0.0000 C   0  0  0  0  0  0  0  0  0  0  0  0
   12.5473  -16.7409    0.0000 C   0  0  0  0  0  0  0  0  0  0  0  0
   11.3982  -15.7767    0.0000 C   0  0  0  0  0  0  0  0  0  0  0  0
    7.1696  -15.2637    0.0000 C   0  0  0  0  0  0  0  0  0  0  0  0
    5.7600  -14.7506    0.0000 C   0  0  0  0  0  0  0  0  0  0  0  0
    4.4410  -13.7246    0.0000 O   0  0  0  0  0  0  0  0  0  0  0  0
    5.1910  -12.4255    0.0000 C   0  0  0  0  0  0  0  0  0  0  0  0
    4.4410  -11.1265    0.0000 C   0  0  0  0  0  0  0  0  0  0  0  0
    5.1910   -9.8275    0.0000 C   0  0  0  0  0  0  0  0  0  0  0  0
    6.6910   -9.8275    0.0000 C   0  0  0  0  0  0  0  0  0  0  0  0
    7.4410   -8.5284    0.0000 C   0  0  0  0  0  0  0  0  0  0  0  0
    6.6910   -7.2294    0.0000 N   0  0  0  0  0  0  0  0  0  0  0  0
    5.1910   -7.2294    0.0000 C   0  0  0  0  0  0  0  0  0  0  0  0
    4.4410   -5.9303    0.0000 C   0  0  0  0  0  0  0  0  0  0  0  0
    2.9410   -5.9303    0.0000 C   0  0  0  0  0  0  0  0  0  0  0  0
    2.1910   -7.2294    0.0000 C   0  0  0  0  0  0  0  0  0  0  0  0
    0.7355   -6.8664    0.0000 O   0  0  0  0  0  0  0  0  0  0  0  0
    2.9410   -8.5284    0.0000 C   0  0  0  0  0  0  0  0  0  0  0  0
    4.4410   -8.5284    0.0000 C   0  0  0  0  0  0  0  0  0  0  0  0
    8.9410   -8.5284    0.0000 P   0  0  0  0  0  0  0  0  0  0  0  0
    8.6805  -10.0056    0.0000 O   0  0  0  0  0  0  0  0  0  0  0  0
    8.6805   -7.0512    0.0000 O   0  0  0  0  0  0  0  0  0  0  0  0
    9.8296   -6.0870    0.0000 C   0  0  0  0  0  0  0  0  0  0  0  0
    9.5691   -4.6098    0.0000 C   0  0  0  0  0  0  0  0  0  0  0  0
   10.7181   -3.6456    0.0000 C   0  0  0  0  0  0  0  0  0  0  0  0
   12.1277   -4.1587    0.0000 C   0  0  0  0  0  0  0  0  0  0  0  0
   12.3882   -5.6359    0.0000 C   0  0  0  0  0  0  0  0  0  0  0  0
   11.2391   -6.6001    0.0000 C   0  0  0  0  0  0  0  0  0  0  0  0
   11.4996   -8.0773    0.0000 C   0  0  0  0  0  0  0  0  0  0  0  0
   12.9091   -8.5903    0.0000 C   0  0  0  0  0  0  0  0  0  0  0  0
   13.1696  -10.0675    0.0000 C   0  0  0  0  0  0  0  0  0  0  0  0
   12.0205  -11.0317    0.0000 C   0  0  0  0  0  0  0  0  0  0  0  0
   10.6110  -10.5187    0.0000 C   0  0  0  0  0  0  0  0  0  0  0  0
   10.3505   -9.0414    0.0000 C   0  0  0  0  0  0  0  0  0  0  0  0
    7.4410  -11.1265    0.0000 C   0  0  0  0  0  0  0  0  0  0  0  0
    6.6910  -12.4255    0.0000 C   0  0  0  0  0  0  0  0  0  0  0  0
    1.5314  -14.2376    0.0000 N   0  0  0  0  0  0  0  0  0  0  0  0
    0.3824  -13.2734    0.0000 P   0  0  0  0  0  0  0  0  0  0  0  0
   -1.0272  -12.7604    0.0000 O   0  0  0  0  0  0  0  0  0  0  0  0
   -2.1763  -13.7246    0.0000 C   0  0  0  0  0  0  0  0  0  0  0  0
   -3.5858  -13.2115    0.0000 C   0  0  0  0  0  0  0  0  0  0  0  0
   -4.7349  -14.1757    0.0000 C   0  0  0  0  0  0  0  0  0  0  0  0
   -4.4744  -15.6529    0.0000 C   0  0  0  0  0  0  0  0  0  0  0  0
   -5.6235  -16.6171    0.0000 C   0  0  0  0  0  0  0  0  0  0  0  0
   -7.0330  -16.1041    0.0000 N   0  0  0  0  0  0  0  0  0  0  0  0
   -8.1821  -17.0683    0.0000 C   0  0  0  0  0  0  0  0  0  0  0  0
   -9.5916  -16.5552    0.0000 C   0  0  0  0  0  0  0  0  0  0  0  0
  -10.7407  -17.5194    0.0000 C   0  0  0  0  0  0  0  0  0  0  0  0
  -10.4802  -18.9966    0.0000 C   0  0  0  0  0  0  0  0  0  0  0  0
  -11.6293  -19.9608    0.0000 O   0  0  0  0  0  0  0  0  0  0  0  0
   -9.0707  -19.5097    0.0000 C   0  0  0  0  0  0  0  0  0  0  0  0
   -7.9216  -18.5455    0.0000 C   0  0  0  0  0  0  0  0  0  0  0  0
   -5.3630  -18.0943    0.0000 P   0  0  0  0  0  0  0  0  0  0  0  0
   -3.9534  -17.5813    0.0000 O   0  0  0  0  0  0  0  0  0  0  0  0
   -6.8630  -18.0943    0.0000 O   0  0  0  0  0  0  0  0  0  0  0  0
   -7.6130  -19.3934    0.0000 C   0  0  0  0  0  0  0  0  0  0  0  0
   -9.1130  -19.3934    0.0000 C   0  0  0  0  0  0  0  0  0  0  0  0
   -9.8630  -20.6924    0.0000 C   0  0  0  0  0  0  0  0  0  0  0  0
   -9.1130  -21.9914    0.0000 C   0  0  0  0  0  0  0  0  0  0  0  0
   -7.6130  -21.9914    0.0000 C   0  0  0  0  0  0  0  0  0  0  0  0
   -6.8630  -20.6924    0.0000 C   0  0  0  0  0  0  0  0  0  0  0  0
   -5.3630  -20.6924    0.0000 C   0  0  0  0  0  0  0  0  0  0  0  0
   -4.6130  -21.9914    0.0000 C   0  0  0  0  0  0  0  0  0  0  0  0
   -3.1130  -21.9914    0.0000 C   0  0  0  0  0  0  0  0  0  0  0  0
   -2.3630  -20.6924    0.0000 C   0  0  0  0  0  0  0  0  0  0  0  0
   -3.1130  -19.3934    0.0000 C   0  0  0  0  0  0  0  0  0  0  0  0
   -4.6130  -19.3934    0.0000 C   0  0  0  0  0  0  0  0  0  0  0  0
   -3.0648  -16.1660    0.0000 C   0  0  0  0  0  0  0  0  0  0  0  0
   -1.9158  -15.2018    0.0000 C   0  0  0  0  0  0  0  0  0  0  0  0
   -0.3676  -14.5725    0.0000 O   0  0  0  0  0  0  0  0  0  0  0  0
   -1.8676  -14.5725    0.0000 C   0  0  0  0  0  0  0  0  0  0  0  0
   -2.6176  -13.2734    0.0000 C   0  0  0  0  0  0  0  0  0  0  0  0
   -4.1176  -13.2734    0.0000 C   0  0  0  0  0  0  0  0  0  0  0  0
   -4.8676  -14.5725    0.0000 C   0  0  0  0  0  0  0  0  0  0  0  0
   -6.3676  -14.5725    0.0000 C   0  0  0  0  0  0  0  0  0  0  0  0
   -7.1176  -13.2734    0.0000 N   0  0  0  0  0  0  0  0  0  0  0  0
   -8.6176  -13.2734    0.0000 C   0  0  0  0  0  0  0  0  0  0  0  0
   -9.3676  -11.9744    0.0000 C   0  0  0  0  0  0  0  0  0  0  0  0
  -10.8231  -12.3373    0.0000 O   0  0  0  0  0  0  0  0  0  0  0  0
   -6.3676  -11.9744    0.0000 C   0  0  0  0  0  0  0  0  0  0  0  0
   -4.8676  -11.9744    0.0000 C   0  0  0  0  0  0  0  0  0  0  0  0
   -4.1176  -10.6753    0.0000 C   0  0  0  0  0  0  0  0  0  0  0  0
   -4.8676   -9.3763    0.0000 C   0  0  0  0  0  0  0  0  0  0  0  0
   -4.1176   -8.0773    0.0000 O   0  0  0  0  0  0  0  0  0  0  0  0
   -6.3676   -9.3763    0.0000 C   0  0  0  0  0  0  0  0  0  0  0  0
   -7.1176  -10.6753    0.0000 C   0  0  0  0  0  0  0  0  0  0  0  0
   -7.1176  -15.8715    0.0000 P   0  0  0  0  0  0  0  0  0  0  0  0
   -5.8741  -16.7103    0.0000 O   0  0  0  0  0  0  0  0  0  0  0  0
   -8.2667  -14.9073    0.0000 O   0  0  0  0  0  0  0  0  0  0  0  0
   -9.6763  -15.4203    0.0000 C   0  0  0  0  0  0  0  0  0  0  0  0
  -10.8253  -14.4562    0.0000 C   0  0  0  0  0  0  0  0  0  0  0  0
  -12.2349  -14.9692    0.0000 C   0  0  0  0  0  0  0  0  0  0  0  0
  -12.4953  -16.4464    0.0000 C   0  0  0  0  0  0  0  0  0  0  0  0
  -11.3463  -17.4106    0.0000 C   0  0  0  0  0  0  0  0  0  0  0  0
   -9.9367  -16.8976    0.0000 C   0  0  0  0  0  0  0  0  0  0  0  0
   -8.7877  -17.8617    0.0000 C   0  0  0  0  0  0  0  0  0  0  0  0
   -9.0481  -19.3389    0.0000 C   0  0  0  0  0  0  0  0  0  0  0  0
   -7.8991  -20.3031    0.0000 C   0  0  0  0  0  0  0  0  0  0  0  0
   -6.4895  -19.7901    0.0000 C   0  0  0  0  0  0  0  0  0  0  0  0
   -6.2291  -18.3129    0.0000 C   0  0  0  0  0  0  0  0  0  0  0  0
   -7.3781  -17.3487    0.0000 C   0  0  0  0  0  0  0  0  0  0  0  0
   -4.1176  -15.8715    0.0000 C   0  0  0  0  0  0  0  0  0  0  0  0
   -2.6176  -15.8715    0.0000 C   0  0  0  0  0  0  0  0  0  0  0  0
    0.6428  -11.7962    0.0000 N   0  0  0  0  0  0  0  0  0  0  0  0
   -0.9476   -8.6851    0.0000 C   0  0  0  0  0  0  0  0  0  0  0  0
   -2.4476   -8.6851    0.0000 C   0  0  0  0  0  0  0  0  0  0  0  0
   -6.5967  -10.3190    0.0000 O   0  0  0  0  0  0  0  0  0  0  0  0
   -8.0062  -10.8320    0.0000 C   0  0  0  0  0  0  0  0  0  0  0  0
   -9.1553   -9.8678    0.0000 C   0  0  0  0  0  0  0  0  0  0  0  0
  -10.5648  -10.3809    0.0000 C   0  0  0  0  0  0  0  0  0  0  0  0
  -10.8253  -11.8581    0.0000 C   0  0  0  0  0  0  0  0  0  0  0  0
   -9.6763  -12.8223    0.0000 C   0  0  0  0  0  0  0  0  0  0  0  0
   -8.2667  -12.3092    0.0000 C   0  0  0  0  0  0  0  0  0  0  0  0
   -7.1176  -13.2734    0.0000 C   0  0  0  0  0  0  0  0  0  0  0  0
   -7.3781  -14.7506    0.0000 C   0  0  0  0  0  0  0  0  0  0  0  0
   -6.2291  -15.7148    0.0000 C   0  0  0  0  0  0  0  0  0  0  0  0
   -4.8195  -15.2018    0.0000 C   0  0  0  0  0  0  0  0  0  0  0  0
   -4.5590  -13.7246    0.0000 C   0  0  0  0  0  0  0  0  0  0  0  0
   -5.7081  -12.7604    0.0000 C   0  0  0  0  0  0  0  0  0  0  0  0
  1  2  2  0
  2  3  1  0
  3  4  1  0
  4  5  1  0
  5  6  2  0
  6  7  1  0
  7  8  2  0
  8  9  1  0
  8 10  1  0
 10 11  2  0
  3 12  1  0
 12 13  2  0
 13 14  1  0
 14 15  2  0
 15 16  1  0
 16 17  1  0
 17 18  1  0
 18 19  1  0
 19 20  2  0
 20 21  1  0
 21 22  2  0
 22 23  1  0
 23 24  1  0
 24 25  1  0
 25 26  2  0
 26 27  1  0
 27 28  2  0
 28 29  1  0
 28 30  1  0
 30 31  2  0
 23 32  1  0
 32 33  2  0
 32 34  1  0
 34 35  1  0
 35 36  2  0
 36 37  1  0
 37 38  2  0
 38 39  1  0
 39 40  2  0
 40 41  1  0
 41 42  2  0
 42 43  1  0
 43 44  2  0
 44 45  1  0
 45 46  2  0
 22 47  1  0
 47 48  2  0
 17 49  2  0
 49 50  1  0
 50 51  1  0
 51 52  1  0
 52 53  2  0
 53 54  1  0
 54 55  2  0
 55 56  1  0
 56 57  1  0
 57 58  1  0
 58 59  2  0
 59 60  1  0
 60 61  2  0
 61 62  1  0
 61 63  1  0
 63 64  2  0
 56 65  1  0
 65 66  2  0
 65 67  1  0
 67 68  1  0
 68 69  2  0
 69 70  1  0
 70 71  2  0
 71 72  1  0
 72 73  2  0
 73 74  1  0
 74 75  2  0
 75 76  1  0
 76 77  2  0
 77 78  1  0
 78 79  2  0
 55 80  1  0
 80 81  2  0
 50 82  1  0
 82 83  1  0
 83 84  2  0
 84 85  1  0
 85 86  2  0
 86 87  1  0
 87 88  1  0
 88 89  1  0
 89 90  2  0
 90 91  1  0
 91 92  2  0
 92 93  1  0
 92 94  1  0
 94 95  2  0
 87 96  1  0
 96 97  2  0
 96 98  1  0
 98 99  1  0
 99100  2  0
100101  1  0
101102  2  0
102103  1  0
103104  2  0
104105  1  0
105106  2  0
106107  1  0
107108  2  0
108109  1  0
109110  2  0
 86111  1  0
111112  2  0
 50113  2  0
113114  1  0
114115  1  0
115116  1  0
116117  2  0
117118  1  0
118119  2  0
119120  1  0
120121  1  0
121122  1  0
122123  2  0
123124  1  0
124125  2  0
125126  1  0
125127  1  0
127128  2  0
120129  1  0
129130  2  0
129131  1  0
131132  1  0
132133  2  0
133134  1  0
134135  2  0
135136  1  0
136137  2  0
137138  1  0
138139  2  0
139140  1  0
140141  2  0
141142  1  0
142143  2  0
119144  1  0
144145  2  0
114146  1  0
146147  1  0
147148  2  0
148149  1  0
149150  2  0
150151  1  0
151152  1  0
152153  1  0
153154  1  0
154155  1  0
152156  1  0
156157  2  0
157158  1  0
158159  2  0
159160  1  0
159161  1  0
161162  2  0
151163  1  0
163164  2  0
163165  1  0
165166  1  0
166167  2  0
167168  1  0
168169  2  0
169170  1  0
170171  2  0
171172  1  0
172173  2  0
173174  1  0
174175  2  0
175176  1  0
176177  2  0
150178  1  0
178179  2  0
114180  2  0
 15181  1  0
181182  2  0
  2183  1  0
183184  1  0
184185  2  0
185186  1  0
186187  2  0
187188  1  0
188189  2  0
189190  1  0
190191  2  0
191192  1  0
192193  2  0
193194  1  0
194195  2  0
195  2  1  0
 11  5  1  0
182 12  1  0
189184  1  0
195190  1  0
180 17  1  0
 48 19  1  0
 81 52  1  0
112 83  1  0
145116  1  0
179147  1  0
 31 25  1  0
 46 32  1  0
 64 58  1  0
 79 65  1  0
 95 89  1  0
110 96  1  0
128122  1  0
143129  1  0
162156  1  0
177163  1  0
 40 35  1  0
 46 41  1  0
 73 68  1  0
 79 74  1  0
104 99  1  0
110105  1  0
137132  1  0
143138  1  0
171166  1  0
177172  1  0
M  END
>  <Candidate_ID>  (40) 
CAND_R2_040

>  <Candidate_Name>  (40) 
CTP-DOPO-NH-hydroxyethyl

>  <Parent_Seed_ID>  (40) 
TRAIN_041

>  <Parent_Name>  (40) 
CTP-DOPO

>  <Transformation_Code>  (40) 
NH_hydroxyethyl

>  <Design_Family>  (40) 
P-N

>  <Preparation_Type>  (40) 
Additive

>  <Synthesis_Level>  (40) 
C

>  <Parent_Tanimoto_r3>  (40) 
0.7425742574257426

>  <Max_Train_Tanimoto_r3>  (40) 
0.7425742574257426

>  <Risk_Flags>  (40) 
high molecular weight; high DOPO count; exploratory only; excluded from formal screening

$$$$
CAND_R2_041 | CTP-DOPO-NH-hydroxyethyl-all
     RDKit          2D

210240  0  0  0  0  0  0  0  0999 V2000
   -4.0381  -11.7962    0.0000 O   0  0  0  0  0  0  0  0  0  0  0  0
   -5.4476  -11.2832    0.0000 P   0  0  0  0  0  0  0  0  0  0  0  0
   -4.6976   -9.9841    0.0000 C   0  0  0  0  0  0  0  0  0  0  0  0
   -3.1976   -9.9841    0.0000 C   0  0  0  0  0  0  0  0  0  0  0  0
   -2.4476  -11.2832    0.0000 C   0  0  0  0  0  0  0  0  0  0  0  0
   -0.9476  -11.2832    0.0000 C   0  0  0  0  0  0  0  0  0  0  0  0
   -0.1976   -9.9841    0.0000 C   0  0  0  0  0  0  0  0  0  0  0  0
    1.3024   -9.9841    0.0000 O   0  0  0  0  0  0  0  0  0  0  0  0
    2.0524  -11.2832    0.0000 P   0  0  0  0  0  0  0  0  0  0  0  0
    3.2014  -10.3190    0.0000 O   0  0  0  0  0  0  0  0  0  0  0  0
    2.9410   -8.8418    0.0000 C   0  0  0  0  0  0  0  0  0  0  0  0
    4.0900   -7.8776    0.0000 C   0  0  0  0  0  0  0  0  0  0  0  0
    3.8296   -6.4004    0.0000 C   0  0  0  0  0  0  0  0  0  0  0  0
    2.4200   -5.8874    0.0000 C   0  0  0  0  0  0  0  0  0  0  0  0
    2.1595   -4.4101    0.0000 C   0  0  0  0  0  0  0  0  0  0  0  0
    3.3086   -3.4460    0.0000 N   0  0  0  0  0  0  0  0  0  0  0  0
    4.7181   -3.9590    0.0000 C   0  0  0  0  0  0  0  0  0  0  0  0
    4.9786   -5.4362    0.0000 C   0  0  0  0  0  0  0  0  0  0  0  0
    6.3882   -5.9492    0.0000 O   0  0  0  0  0  0  0  0  0  0  0  0
    3.0481   -1.9688    0.0000 C   0  0  0  0  0  0  0  0  0  0  0  0
    4.1972   -1.0046    0.0000 C   0  0  0  0  0  0  0  0  0  0  0  0
    3.9367    0.4726    0.0000 C   0  0  0  0  0  0  0  0  0  0  0  0
    2.5272    0.9857    0.0000 C   0  0  0  0  0  0  0  0  0  0  0  0
    2.2667    2.4629    0.0000 O   0  0  0  0  0  0  0  0  0  0  0  0
    1.3781    0.0215    0.0000 C   0  0  0  0  0  0  0  0  0  0  0  0
    1.6386   -1.4557    0.0000 C   0  0  0  0  0  0  0  0  0  0  0  0
    0.7500   -3.8971    0.0000 P   0  0  0  0  0  0  0  0  0  0  0  0
    1.5000   -2.5981    0.0000 O   0  0  0  0  0  0  0  0  0  0  0  0
    0.4895   -5.3743    0.0000 O   0  0  0  0  0  0  0  0  0  0  0  0
   -0.9200   -5.8874    0.0000 C   0  0  0  0  0  0  0  0  0  0  0  0
   -1.1805   -7.3646    0.0000 C   0  0  0  0  0  0  0  0  0  0  0  0
   -2.5900   -7.8776    0.0000 C   0  0  0  0  0  0  0  0  0  0  0  0
   -3.7391   -6.9134    0.0000 C   0  0  0  0  0  0  0  0  0  0  0  0
   -3.4786   -5.4362    0.0000 C   0  0  0  0  0  0  0  0  0  0  0  0
   -2.0691   -4.9232    0.0000 C   0  0  0  0  0  0  0  0  0  0  0  0
   -1.8086   -3.4460    0.0000 C   0  0  0  0  0  0  0  0  0  0  0  0
   -2.9577   -2.4818    0.0000 C   0  0  0  0  0  0  0  0  0  0  0  0
   -2.6972   -1.0046    0.0000 C   0  0  0  0  0  0  0  0  0  0  0  0
   -1.2877   -0.4915    0.0000 C   0  0  0  0  0  0  0  0  0  0  0  0
   -0.1386   -1.4557    0.0000 C   0  0  0  0  0  0  0  0  0  0  0  0
   -0.3991   -2.9329    0.0000 C   0  0  0  0  0  0  0  0  0  0  0  0
    1.2709   -6.8515    0.0000 C   0  0  0  0  0  0  0  0  0  0  0  0
    1.5314   -8.3287    0.0000 C   0  0  0  0  0  0  0  0  0  0  0  0
    3.2014  -12.2474    0.0000 N   0  0  0  0  0  0  0  0  0  0  0  0
    2.9410  -13.7246    0.0000 P   0  0  0  0  0  0  0  0  0  0  0  0
    3.2014  -15.2018    0.0000 O   0  0  0  0  0  0  0  0  0  0  0  0
    4.6110  -15.7148    0.0000 C   0  0  0  0  0  0  0  0  0  0  0  0
    4.8714  -17.1920    0.0000 C   0  0  0  0  0  0  0  0  0  0  0  0
    6.2810  -17.7050    0.0000 C   0  0  0  0  0  0  0  0  0  0  0  0
    7.4300  -16.7409    0.0000 C   0  0  0  0  0  0  0  0  0  0  0  0
    8.8396  -17.2539    0.0000 C   0  0  0  0  0  0  0  0  0  0  0  0
    9.1001  -18.7311    0.0000 N   0  0  0  0  0  0  0  0  0  0  0  0
   10.5096  -19.2441    0.0000 C   0  0  0  0  0  0  0  0  0  0  0  0
   10.7701  -20.7214    0.0000 C   0  0  0  0  0  0  0  0  0  0  0  0
   12.1796  -21.2344    0.0000 O   0  0  0  0  0  0  0  0  0  0  0  0
    7.9510  -19.6953    0.0000 C   0  0  0  0  0  0  0  0  0  0  0  0
    6.5415  -19.1823    0.0000 C   0  0  0  0  0  0  0  0  0  0  0  0
    5.3924  -20.1464    0.0000 C   0  0  0  0  0  0  0  0  0  0  0  0
    5.6529  -21.6237    0.0000 C   0  0  0  0  0  0  0  0  0  0  0  0
    4.5038  -22.5878    0.0000 O   0  0  0  0  0  0  0  0  0  0  0  0
    7.0624  -22.1367    0.0000 C   0  0  0  0  0  0  0  0  0  0  0  0
    8.2115  -21.1725    0.0000 C   0  0  0  0  0  0  0  0  0  0  0  0
    9.9887  -16.2897    0.0000 P   0  0  0  0  0  0  0  0  0  0  0  0
    8.8396  -15.3255    0.0000 O   0  0  0  0  0  0  0  0  0  0  0  0
   10.7387  -17.5888    0.0000 O   0  0  0  0  0  0  0  0  0  0  0  0
   12.2387  -17.5888    0.0000 C   0  0  0  0  0  0  0  0  0  0  0  0
   12.9887  -18.8878    0.0000 C   0  0  0  0  0  0  0  0  0  0  0  0
   14.4887  -18.8878    0.0000 C   0  0  0  0  0  0  0  0  0  0  0  0
   15.2387  -17.5888    0.0000 C   0  0  0  0  0  0  0  0  0  0  0  0
   14.4887  -16.2897    0.0000 C   0  0  0  0  0  0  0  0  0  0  0  0
   12.9887  -16.2897    0.0000 C   0  0  0  0  0  0  0  0  0  0  0  0
   12.2387  -14.9907    0.0000 C   0  0  0  0  0  0  0  0  0  0  0  0
   12.9887  -13.6916    0.0000 C   0  0  0  0  0  0  0  0  0  0  0  0
   12.2387  -12.3926    0.0000 C   0  0  0  0  0  0  0  0  0  0  0  0
   10.7387  -12.3926    0.0000 C   0  0  0  0  0  0  0  0  0  0  0  0
    9.9887  -13.6916    0.0000 C   0  0  0  0  0  0  0  0  0  0  0  0
   10.7387  -14.9907    0.0000 C   0  0  0  0  0  0  0  0  0  0  0  0
    7.1696  -15.2637    0.0000 C   0  0  0  0  0  0  0  0  0  0  0  0
    5.7600  -14.7506    0.0000 C   0  0  0  0  0  0  0  0  0  0  0  0
    4.4410  -13.7246    0.0000 O   0  0  0  0  0  0  0  0  0  0  0  0
    5.1910  -12.4255    0.0000 C   0  0  0  0  0  0  0  0  0  0  0  0
    4.4410  -11.1265    0.0000 C   0  0  0  0  0  0  0  0  0  0  0  0
    5.1910   -9.8275    0.0000 C   0  0  0  0  0  0  0  0  0  0  0  0
    6.6910   -9.8275    0.0000 C   0  0  0  0  0  0  0  0  0  0  0  0
    7.4410   -8.5284    0.0000 C   0  0  0  0  0  0  0  0  0  0  0  0
    6.6910   -7.2294    0.0000 N   0  0  0  0  0  0  0  0  0  0  0  0
    5.1910   -7.2294    0.0000 C   0  0  0  0  0  0  0  0  0  0  0  0
    4.4410   -5.9303    0.0000 C   0  0  0  0  0  0  0  0  0  0  0  0
    5.1910   -4.6313    0.0000 O   0  0  0  0  0  0  0  0  0  0  0  0
    7.4410   -5.9303    0.0000 C   0  0  0  0  0  0  0  0  0  0  0  0
    6.6910   -4.6313    0.0000 C   0  0  0  0  0  0  0  0  0  0  0  0
    7.4410   -3.3323    0.0000 C   0  0  0  0  0  0  0  0  0  0  0  0
    8.9410   -3.3323    0.0000 C   0  0  0  0  0  0  0  0  0  0  0  0
    9.6910   -2.0332    0.0000 O   0  0  0  0  0  0  0  0  0  0  0  0
    9.6910   -4.6313    0.0000 C   0  0  0  0  0  0  0  0  0  0  0  0
    8.9410   -5.9303    0.0000 C   0  0  0  0  0  0  0  0  0  0  0  0
    8.9410   -8.5284    0.0000 P   0  0  0  0  0  0  0  0  0  0  0  0
    8.6805   -7.0512    0.0000 O   0  0  0  0  0  0  0  0  0  0  0  0
    8.6805  -10.0056    0.0000 O   0  0  0  0  0  0  0  0  0  0  0  0
    9.8296  -10.9698    0.0000 C   0  0  0  0  0  0  0  0  0  0  0  0
    9.5691  -12.4470    0.0000 C   0  0  0  0  0  0  0  0  0  0  0  0
   10.7181  -13.4112    0.0000 C   0  0  0  0  0  0  0  0  0  0  0  0
   12.1277  -12.8982    0.0000 C   0  0  0  0  0  0  0  0  0  0  0  0
   12.3882  -11.4210    0.0000 C   0  0  0  0  0  0  0  0  0  0  0  0
   11.2391  -10.4568    0.0000 C   0  0  0  0  0  0  0  0  0  0  0  0
   11.4996   -8.9796    0.0000 C   0  0  0  0  0  0  0  0  0  0  0  0
   12.9091   -8.4665    0.0000 C   0  0  0  0  0  0  0  0  0  0  0  0
   13.1696   -6.9893    0.0000 C   0  0  0  0  0  0  0  0  0  0  0  0
   12.0205   -6.0251    0.0000 C   0  0  0  0  0  0  0  0  0  0  0  0
   10.6110   -6.5382    0.0000 C   0  0  0  0  0  0  0  0  0  0  0  0
   10.3505   -8.0154    0.0000 C   0  0  0  0  0  0  0  0  0  0  0  0
    7.4410  -11.1265    0.0000 C   0  0  0  0  0  0  0  0  0  0  0  0
    6.6910  -12.4255    0.0000 C   0  0  0  0  0  0  0  0  0  0  0  0
    1.5314  -14.2376    0.0000 N   0  0  0  0  0  0  0  0  0  0  0  0
    0.3824  -13.2734    0.0000 P   0  0  0  0  0  0  0  0  0  0  0  0
   -1.0272  -12.7604    0.0000 O   0  0  0  0  0  0  0  0  0  0  0  0
   -2.1763  -13.7246    0.0000 C   0  0  0  0  0  0  0  0  0  0  0  0
   -3.5858  -13.2115    0.0000 C   0  0  0  0  0  0  0  0  0  0  0  0
   -4.7349  -14.1757    0.0000 C   0  0  0  0  0  0  0  0  0  0  0  0
   -4.4744  -15.6529    0.0000 C   0  0  0  0  0  0  0  0  0  0  0  0
   -5.6235  -16.6171    0.0000 C   0  0  0  0  0  0  0  0  0  0  0  0
   -7.0330  -16.1041    0.0000 N   0  0  0  0  0  0  0  0  0  0  0  0
   -8.1821  -17.0683    0.0000 C   0  0  0  0  0  0  0  0  0  0  0  0
   -9.5916  -16.5552    0.0000 C   0  0  0  0  0  0  0  0  0  0  0  0
  -10.9398  -17.2127    0.0000 O   0  0  0  0  0  0  0  0  0  0  0  0
   -7.2935  -14.6269    0.0000 C   0  0  0  0  0  0  0  0  0  0  0  0
   -6.1444  -13.6627    0.0000 C   0  0  0  0  0  0  0  0  0  0  0  0
   -6.4049  -12.1855    0.0000 C   0  0  0  0  0  0  0  0  0  0  0  0
   -7.8144  -11.6724    0.0000 C   0  0  0  0  0  0  0  0  0  0  0  0
   -8.4246  -10.3022    0.0000 O   0  0  0  0  0  0  0  0  0  0  0  0
   -8.9635  -12.6366    0.0000 C   0  0  0  0  0  0  0  0  0  0  0  0
   -8.7030  -14.1138    0.0000 C   0  0  0  0  0  0  0  0  0  0  0  0
   -5.3630  -18.0943    0.0000 P   0  0  0  0  0  0  0  0  0  0  0  0
   -3.9534  -17.5813    0.0000 O   0  0  0  0  0  0  0  0  0  0  0  0
   -6.8630  -18.0943    0.0000 O   0  0  0  0  0  0  0  0  0  0  0  0
   -7.6130  -19.3934    0.0000 C   0  0  0  0  0  0  0  0  0  0  0  0
   -9.1130  -19.3934    0.0000 C   0  0  0  0  0  0  0  0  0  0  0  0
   -9.8630  -20.6924    0.0000 C   0  0  0  0  0  0  0  0  0  0  0  0
   -9.1130  -21.9914    0.0000 C   0  0  0  0  0  0  0  0  0  0  0  0
   -7.6130  -21.9914    0.0000 C   0  0  0  0  0  0  0  0  0  0  0  0
   -6.8630  -20.6924    0.0000 C   0  0  0  0  0  0  0  0  0  0  0  0
   -5.3630  -20.6924    0.0000 C   0  0  0  0  0  0  0  0  0  0  0  0
   -4.6130  -21.9914    0.0000 C   0  0  0  0  0  0  0  0  0  0  0  0
   -3.1130  -21.9914    0.0000 C   0  0  0  0  0  0  0  0  0  0  0  0
   -2.3630  -20.6924    0.0000 C   0  0  0  0  0  0  0  0  0  0  0  0
   -3.1130  -19.3934    0.0000 C   0  0  0  0  0  0  0  0  0  0  0  0
   -4.6130  -19.3934    0.0000 C   0  0  0  0  0  0  0  0  0  0  0  0
   -3.0648  -16.1660    0.0000 C   0  0  0  0  0  0  0  0  0  0  0  0
   -1.9158  -15.2018    0.0000 C   0  0  0  0  0  0  0  0  0  0  0  0
   -0.3676  -14.5725    0.0000 O   0  0  0  0  0  0  0  0  0  0  0  0
   -1.8676  -14.5725    0.0000 C   0  0  0  0  0  0  0  0  0  0  0  0
   -2.6176  -13.2734    0.0000 C   0  0  0  0  0  0  0  0  0  0  0  0
   -4.1176  -13.2734    0.0000 C   0  0  0  0  0  0  0  0  0  0  0  0
   -4.8676  -14.5725    0.0000 C   0  0  0  0  0  0  0  0  0  0  0  0
   -6.3676  -14.5725    0.0000 C   0  0  0  0  0  0  0  0  0  0  0  0
   -7.1176  -13.2734    0.0000 N   0  0  0  0  0  0  0  0  0  0  0  0
   -8.6176  -13.2734    0.0000 C   0  0  0  0  0  0  0  0  0  0  0  0
   -9.3676  -11.9744    0.0000 C   0  0  0  0  0  0  0  0  0  0  0  0
  -10.8231  -12.3373    0.0000 O   0  0  0  0  0  0  0  0  0  0  0  0
   -6.3676  -11.9744    0.0000 C   0  0  0  0  0  0  0  0  0  0  0  0
   -4.8676  -11.9744    0.0000 C   0  0  0  0  0  0  0  0  0  0  0  0
   -4.1176  -10.6753    0.0000 C   0  0  0  0  0  0  0  0  0  0  0  0
   -4.8676   -9.3763    0.0000 C   0  0  0  0  0  0  0  0  0  0  0  0
   -4.1176   -8.0773    0.0000 O   0  0  0  0  0  0  0  0  0  0  0  0
   -6.3676   -9.3763    0.0000 C   0  0  0  0  0  0  0  0  0  0  0  0
   -7.1176  -10.6753    0.0000 C   0  0  0  0  0  0  0  0  0  0  0  0
   -7.1176  -15.8715    0.0000 P   0  0  0  0  0  0  0  0  0  0  0  0
   -5.8741  -16.7103    0.0000 O   0  0  0  0  0  0  0  0  0  0  0  0
   -8.2667  -14.9073    0.0000 O   0  0  0  0  0  0  0  0  0  0  0  0
   -9.6763  -15.4203    0.0000 C   0  0  0  0  0  0  0  0  0  0  0  0
  -10.8253  -14.4562    0.0000 C   0  0  0  0  0  0  0  0  0  0  0  0
  -12.2349  -14.9692    0.0000 C   0  0  0  0  0  0  0  0  0  0  0  0
  -12.4953  -16.4464    0.0000 C   0  0  0  0  0  0  0  0  0  0  0  0
  -11.3463  -17.4106    0.0000 C   0  0  0  0  0  0  0  0  0  0  0  0
   -9.9367  -16.8976    0.0000 C   0  0  0  0  0  0  0  0  0  0  0  0
   -8.7877  -17.8617    0.0000 C   0  0  0  0  0  0  0  0  0  0  0  0
   -9.0481  -19.3389    0.0000 C   0  0  0  0  0  0  0  0  0  0  0  0
   -7.8991  -20.3031    0.0000 C   0  0  0  0  0  0  0  0  0  0  0  0
   -6.4895  -19.7901    0.0000 C   0  0  0  0  0  0  0  0  0  0  0  0
   -6.2291  -18.3129    0.0000 C   0  0  0  0  0  0  0  0  0  0  0  0
   -7.3781  -17.3487    0.0000 C   0  0  0  0  0  0  0  0  0  0  0  0
   -4.1176  -15.8715    0.0000 C   0  0  0  0  0  0  0  0  0  0  0  0
   -2.6176  -15.8715    0.0000 C   0  0  0  0  0  0  0  0  0  0  0  0
    0.6428  -11.7962    0.0000 N   0  0  0  0  0  0  0  0  0  0  0  0
   -0.9476   -8.6851    0.0000 C   0  0  0  0  0  0  0  0  0  0  0  0
   -2.4476   -8.6851    0.0000 C   0  0  0  0  0  0  0  0  0  0  0  0
   -5.4476   -8.6851    0.0000 N   0  0  0  0  0  0  0  0  0  0  0  0
   -6.9476   -8.6851    0.0000 C   0  0  0  0  0  0  0  0  0  0  0  0
   -7.6976   -7.3861    0.0000 C   0  0  0  0  0  0  0  0  0  0  0  0
   -9.1976   -7.3861    0.0000 O   0  0  0  0  0  0  0  0  0  0  0  0
   -4.6976   -7.3861    0.0000 C   0  0  0  0  0  0  0  0  0  0  0  0
   -3.1976   -7.3861    0.0000 C   0  0  0  0  0  0  0  0  0  0  0  0
   -2.4476   -6.0870    0.0000 C   0  0  0  0  0  0  0  0  0  0  0  0
   -3.1976   -4.7880    0.0000 C   0  0  0  0  0  0  0  0  0  0  0  0
   -2.7843   -3.3461    0.0000 O   0  0  0  0  0  0  0  0  0  0  0  0
   -4.6976   -4.7880    0.0000 C   0  0  0  0  0  0  0  0  0  0  0  0
   -5.4476   -6.0870    0.0000 C   0  0  0  0  0  0  0  0  0  0  0  0
   -6.5967  -10.3190    0.0000 O   0  0  0  0  0  0  0  0  0  0  0  0
   -8.0062  -10.8320    0.0000 C   0  0  0  0  0  0  0  0  0  0  0  0
   -9.1553   -9.8678    0.0000 C   0  0  0  0  0  0  0  0  0  0  0  0
  -10.5648  -10.3809    0.0000 C   0  0  0  0  0  0  0  0  0  0  0  0
  -10.8253  -11.8581    0.0000 C   0  0  0  0  0  0  0  0  0  0  0  0
   -9.6763  -12.8223    0.0000 C   0  0  0  0  0  0  0  0  0  0  0  0
   -8.2667  -12.3092    0.0000 C   0  0  0  0  0  0  0  0  0  0  0  0
   -7.1176  -13.2734    0.0000 C   0  0  0  0  0  0  0  0  0  0  0  0
   -7.3781  -14.7506    0.0000 C   0  0  0  0  0  0  0  0  0  0  0  0
   -6.2291  -15.7148    0.0000 C   0  0  0  0  0  0  0  0  0  0  0  0
   -4.8195  -15.2018    0.0000 C   0  0  0  0  0  0  0  0  0  0  0  0
   -4.5590  -13.7246    0.0000 C   0  0  0  0  0  0  0  0  0  0  0  0
   -5.7081  -12.7604    0.0000 C   0  0  0  0  0  0  0  0  0  0  0  0
  1  2  2  0
  2  3  1  0
  3  4  1  0
  4  5  2  0
  5  6  1  0
  6  7  2  0
  7  8  1  0
  8  9  1  0
  9 10  1  0
 10 11  1  0
 11 12  2  0
 12 13  1  0
 13 14  2  0
 14 15  1  0
 15 16  1  0
 16 17  1  0
 17 18  1  0
 18 19  1  0
 16 20  1  0
 20 21  2  0
 21 22  1  0
 22 23  2  0
 23 24  1  0
 23 25  1  0
 25 26  2  0
 15 27  1  0
 27 28  2  0
 27 29  1  0
 29 30  1  0
 30 31  2  0
 31 32  1  0
 32 33  2  0
 33 34  1  0
 34 35  2  0
 35 36  1  0
 36 37  2  0
 37 38  1  0
 38 39  2  0
 39 40  1  0
 40 41  2  0
 14 42  1  0
 42 43  2  0
  9 44  2  0
 44 45  1  0
 45 46  1  0
 46 47  1  0
 47 48  2  0
 48 49  1  0
 49 50  2  0
 50 51  1  0
 51 52  1  0
 52 53  1  0
 53 54  1  0
 54 55  1  0
 52 56  1  0
 56 57  2  0
 57 58  1  0
 58 59  2  0
 59 60  1  0
 59 61  1  0
 61 62  2  0
 51 63  1  0
 63 64  2  0
 63 65  1  0
 65 66  1  0
 66 67  2  0
 67 68  1  0
 68 69  2  0
 69 70  1  0
 70 71  2  0
 71 72  1  0
 72 73  2  0
 73 74  1  0
 74 75  2  0
 75 76  1  0
 76 77  2  0
 50 78  1  0
 78 79  2  0
 45 80  1  0
 80 81  1  0
 81 82  2  0
 82 83  1  0
 83 84  2  0
 84 85  1  0
 85 86  1  0
 86 87  1  0
 87 88  1  0
 88 89  1  0
 86 90  1  0
 90 91  2  0
 91 92  1  0
 92 93  2  0
 93 94  1  0
 93 95  1  0
 95 96  2  0
 85 97  1  0
 97 98  2  0
 97 99  1  0
 99100  1  0
100101  2  0
101102  1  0
102103  2  0
103104  1  0
104105  2  0
105106  1  0
106107  2  0
107108  1  0
108109  2  0
109110  1  0
110111  2  0
 84112  1  0
112113  2  0
 45114  2  0
114115  1  0
115116  1  0
116117  1  0
117118  2  0
118119  1  0
119120  2  0
120121  1  0
121122  1  0
122123  1  0
123124  1  0
124125  1  0
122126  1  0
126127  2  0
127128  1  0
128129  2  0
129130  1  0
129131  1  0
131132  2  0
121133  1  0
133134  2  0
133135  1  0
135136  1  0
136137  2  0
137138  1  0
138139  2  0
139140  1  0
140141  2  0
141142  1  0
142143  2  0
143144  1  0
144145  2  0
145146  1  0
146147  2  0
120148  1  0
148149  2  0
115150  1  0
150151  1  0
151152  2  0
152153  1  0
153154  2  0
154155  1  0
155156  1  0
156157  1  0
157158  1  0
158159  1  0
156160  1  0
160161  2  0
161162  1  0
162163  2  0
163164  1  0
163165  1  0
165166  2  0
155167  1  0
167168  2  0
167169  1  0
169170  1  0
170171  2  0
171172  1  0
172173  2  0
173174  1  0
174175  2  0
175176  1  0
176177  2  0
177178  1  0
178179  2  0
179180  1  0
180181  2  0
154182  1  0
182183  2  0
115184  2  0
  7185  1  0
185186  2  0
  3187  1  0
187188  1  0
188189  1  0
189190  1  0
187191  1  0
191192  2  0
192193  1  0
193194  2  0
194195  1  0
194196  1  0
196197  2  0
  2198  1  0
198199  1  0
199200  2  0
200201  1  0
201202  2  0
202203  1  0
203204  2  0
204205  1  0
205206  2  0
206207  1  0
207208  2  0
208209  1  0
209210  2  0
210  2  1  0
186  4  1  0
197191  1  0
204199  1  0
210205  1  0
184  9  1  0
 43 11  1  0
 79 47  1  0
113 81  1  0
149117  1  0
183151  1  0
 26 20  1  0
 41 27  1  0
 62 56  1  0
 77 63  1  0
 96 90  1  0
111 97  1  0
132126  1  0
147133  1  0
166160  1  0
181167  1  0
 35 30  1  0
 41 36  1  0
 71 66  1  0
 77 72  1  0
105100  1  0
111106  1  0
141136  1  0
147142  1  0
175170  1  0
181176  1  0
M  END
>  <Candidate_ID>  (41) 
CAND_R2_041

>  <Candidate_Name>  (41) 
CTP-DOPO-NH-hydroxyethyl-all

>  <Parent_Seed_ID>  (41) 
TRAIN_041

>  <Parent_Name>  (41) 
CTP-DOPO

>  <Transformation_Code>  (41) 
NH_hydroxyethyl_all

>  <Design_Family>  (41) 
P-N

>  <Preparation_Type>  (41) 
Additive

>  <Synthesis_Level>  (41) 
C

>  <Parent_Tanimoto_r3>  (41) 
0.5544554455445545

>  <Max_Train_Tanimoto_r3>  (41) 
0.5544554455445545

>  <Risk_Flags>  (41) 
high molecular weight; high DOPO count; large structural change from parent; candidate may be outside strict in-domain threshold; exploratory only; excluded from formal screening

$$$$
CAND_R2_042 | CTP-DOPO-NH-glycidyl
     RDKit          2D

196227  0  0  0  0  0  0  0  0999 V2000
   -4.0381  -11.7962    0.0000 O   0  0  0  0  0  0  0  0  0  0  0  0
   -5.4476  -11.2832    0.0000 P   0  0  0  0  0  0  0  0  0  0  0  0
   -4.6976   -9.9841    0.0000 C   0  0  0  0  0  0  0  0  0  0  0  0
   -5.4476   -8.6851    0.0000 N   0  0  0  0  0  0  0  0  0  0  0  0
   -6.9476   -8.6851    0.0000 C   0  0  0  0  0  0  0  0  0  0  0  0
   -7.6976   -7.3861    0.0000 C   0  0  0  0  0  0  0  0  0  0  0  0
   -9.1976   -7.3861    0.0000 C   0  0  0  0  0  0  0  0  0  0  0  0
   -9.9476   -8.6851    0.0000 C   0  0  0  0  0  0  0  0  0  0  0  0
  -11.4476   -8.6851    0.0000 O   0  0  0  0  0  0  0  0  0  0  0  0
   -9.1976   -9.9841    0.0000 C   0  0  0  0  0  0  0  0  0  0  0  0
   -7.6976   -9.9841    0.0000 C   0  0  0  0  0  0  0  0  0  0  0  0
   -3.1976   -9.9841    0.0000 C   0  0  0  0  0  0  0  0  0  0  0  0
   -2.4476  -11.2832    0.0000 C   0  0  0  0  0  0  0  0  0  0  0  0
   -0.9476  -11.2832    0.0000 C   0  0  0  0  0  0  0  0  0  0  0  0
   -0.1976   -9.9841    0.0000 C   0  0  0  0  0  0  0  0  0  0  0  0
    1.3024   -9.9841    0.0000 O   0  0  0  0  0  0  0  0  0  0  0  0
    2.0524  -11.2832    0.0000 P   0  0  0  0  0  0  0  0  0  0  0  0
    3.2014  -10.3190    0.0000 O   0  0  0  0  0  0  0  0  0  0  0  0
    2.9410   -8.8418    0.0000 C   0  0  0  0  0  0  0  0  0  0  0  0
    4.0900   -7.8776    0.0000 C   0  0  0  0  0  0  0  0  0  0  0  0
    3.8296   -6.4004    0.0000 C   0  0  0  0  0  0  0  0  0  0  0  0
    2.4200   -5.8874    0.0000 C   0  0  0  0  0  0  0  0  0  0  0  0
    2.1595   -4.4101    0.0000 C   0  0  0  0  0  0  0  0  0  0  0  0
    3.3086   -3.4460    0.0000 N   0  0  0  0  0  0  0  0  0  0  0  0
    4.7181   -3.9590    0.0000 C   0  0  0  0  0  0  0  0  0  0  0  0
    4.9786   -5.4362    0.0000 C   0  0  0  0  0  0  0  0  0  0  0  0
    6.3882   -5.9492    0.0000 C   0  0  0  0  0  0  0  0  0  0  0  0
    7.5372   -4.9851    0.0000 C   0  0  0  0  0  0  0  0  0  0  0  0
    8.9468   -5.4981    0.0000 O   0  0  0  0  0  0  0  0  0  0  0  0
    7.2768   -3.5078    0.0000 C   0  0  0  0  0  0  0  0  0  0  0  0
    5.8672   -2.9948    0.0000 C   0  0  0  0  0  0  0  0  0  0  0  0
    0.7500   -3.8971    0.0000 P   0  0  0  0  0  0  0  0  0  0  0  0
    0.4895   -5.3743    0.0000 O   0  0  0  0  0  0  0  0  0  0  0  0
    1.5000   -2.5981    0.0000 O   0  0  0  0  0  0  0  0  0  0  0  0
    0.7500   -1.2990    0.0000 C   0  0  0  0  0  0  0  0  0  0  0  0
    1.5000   -0.0000    0.0000 C   0  0  0  0  0  0  0  0  0  0  0  0
    0.7500    1.2990    0.0000 C   0  0  0  0  0  0  0  0  0  0  0  0
   -0.7500    1.2990    0.0000 C   0  0  0  0  0  0  0  0  0  0  0  0
   -1.5000   -0.0000    0.0000 C   0  0  0  0  0  0  0  0  0  0  0  0
   -0.7500   -1.2990    0.0000 C   0  0  0  0  0  0  0  0  0  0  0  0
   -1.5000   -2.5981    0.0000 C   0  0  0  0  0  0  0  0  0  0  0  0
   -3.0000   -2.5981    0.0000 C   0  0  0  0  0  0  0  0  0  0  0  0
   -3.7500   -3.8971    0.0000 C   0  0  0  0  0  0  0  0  0  0  0  0
   -3.0000   -5.1962    0.0000 C   0  0  0  0  0  0  0  0  0  0  0  0
   -1.5000   -5.1962    0.0000 C   0  0  0  0  0  0  0  0  0  0  0  0
   -0.7500   -3.8971    0.0000 C   0  0  0  0  0  0  0  0  0  0  0  0
    1.2709   -6.8515    0.0000 C   0  0  0  0  0  0  0  0  0  0  0  0
    1.5314   -8.3287    0.0000 C   0  0  0  0  0  0  0  0  0  0  0  0
    3.2014  -12.2474    0.0000 N   0  0  0  0  0  0  0  0  0  0  0  0
    2.9410  -13.7246    0.0000 P   0  0  0  0  0  0  0  0  0  0  0  0
    3.2014  -15.2018    0.0000 O   0  0  0  0  0  0  0  0  0  0  0  0
    4.6110  -15.7148    0.0000 C   0  0  0  0  0  0  0  0  0  0  0  0
    4.8714  -17.1920    0.0000 C   0  0  0  0  0  0  0  0  0  0  0  0
    6.2810  -17.7050    0.0000 C   0  0  0  0  0  0  0  0  0  0  0  0
    7.4300  -16.7409    0.0000 C   0  0  0  0  0  0  0  0  0  0  0  0
    8.8396  -17.2539    0.0000 C   0  0  0  0  0  0  0  0  0  0  0  0
    9.1001  -18.7311    0.0000 N   0  0  0  0  0  0  0  0  0  0  0  0
   10.5096  -19.2441    0.0000 C   0  0  0  0  0  0  0  0  0  0  0  0
   10.7701  -20.7214    0.0000 C   0  0  0  0  0  0  0  0  0  0  0  0
   12.1796  -21.2344    0.0000 C   0  0  0  0  0  0  0  0  0  0  0  0
   13.3287  -20.2702    0.0000 C   0  0  0  0  0  0  0  0  0  0  0  0
   14.7382  -20.7832    0.0000 O   0  0  0  0  0  0  0  0  0  0  0  0
   13.0682  -18.7930    0.0000 C   0  0  0  0  0  0  0  0  0  0  0  0
   11.6587  -18.2800    0.0000 C   0  0  0  0  0  0  0  0  0  0  0  0
    9.9887  -16.2897    0.0000 P   0  0  0  0  0  0  0  0  0  0  0  0
   10.7387  -17.5888    0.0000 O   0  0  0  0  0  0  0  0  0  0  0  0
    8.8396  -15.3255    0.0000 O   0  0  0  0  0  0  0  0  0  0  0  0
    9.1001  -13.8483    0.0000 C   0  0  0  0  0  0  0  0  0  0  0  0
    7.9510  -12.8841    0.0000 C   0  0  0  0  0  0  0  0  0  0  0  0
    8.2115  -11.4069    0.0000 C   0  0  0  0  0  0  0  0  0  0  0  0
    9.6210  -10.8939    0.0000 C   0  0  0  0  0  0  0  0  0  0  0  0
   10.7701  -11.8581    0.0000 C   0  0  0  0  0  0  0  0  0  0  0  0
   10.5096  -13.3353    0.0000 C   0  0  0  0  0  0  0  0  0  0  0  0
   11.6587  -14.2995    0.0000 C   0  0  0  0  0  0  0  0  0  0  0  0
   13.0682  -13.7864    0.0000 C   0  0  0  0  0  0  0  0  0  0  0  0
   14.2173  -14.7506    0.0000 C   0  0  0  0  0  0  0  0  0  0  0  0
   13.9568  -16.2278    0.0000 C   0  0  0  0  0  0  0  0  0  0  0  0
   12.5473  -16.7409    0.0000 C   0  0  0  0  0  0  0  0  0  0  0  0
   11.3982  -15.7767    0.0000 C   0  0  0  0  0  0  0  0  0  0  0  0
    7.1696  -15.2637    0.0000 C   0  0  0  0  0  0  0  0  0  0  0  0
    5.7600  -14.7506    0.0000 C   0  0  0  0  0  0  0  0  0  0  0  0
    4.4410  -13.7246    0.0000 O   0  0  0  0  0  0  0  0  0  0  0  0
    5.1910  -12.4255    0.0000 C   0  0  0  0  0  0  0  0  0  0  0  0
    4.4410  -11.1265    0.0000 C   0  0  0  0  0  0  0  0  0  0  0  0
    5.1910   -9.8275    0.0000 C   0  0  0  0  0  0  0  0  0  0  0  0
    6.6910   -9.8275    0.0000 C   0  0  0  0  0  0  0  0  0  0  0  0
    7.4410   -8.5284    0.0000 C   0  0  0  0  0  0  0  0  0  0  0  0
    6.6910   -7.2294    0.0000 N   0  0  0  0  0  0  0  0  0  0  0  0
    5.1910   -7.2294    0.0000 C   0  0  0  0  0  0  0  0  0  0  0  0
    4.4410   -5.9303    0.0000 C   0  0  0  0  0  0  0  0  0  0  0  0
    2.9410   -5.9303    0.0000 C   0  0  0  0  0  0  0  0  0  0  0  0
    2.1910   -7.2294    0.0000 C   0  0  0  0  0  0  0  0  0  0  0  0
    0.7355   -6.8664    0.0000 O   0  0  0  0  0  0  0  0  0  0  0  0
    2.9410   -8.5284    0.0000 C   0  0  0  0  0  0  0  0  0  0  0  0
    4.4410   -8.5284    0.0000 C   0  0  0  0  0  0  0  0  0  0  0  0
    8.9410   -8.5284    0.0000 P   0  0  0  0  0  0  0  0  0  0  0  0
    8.6805  -10.0056    0.0000 O   0  0  0  0  0  0  0  0  0  0  0  0
    8.6805   -7.0512    0.0000 O   0  0  0  0  0  0  0  0  0  0  0  0
    9.8296   -6.0870    0.0000 C   0  0  0  0  0  0  0  0  0  0  0  0
    9.5691   -4.6098    0.0000 C   0  0  0  0  0  0  0  0  0  0  0  0
   10.7181   -3.6456    0.0000 C   0  0  0  0  0  0  0  0  0  0  0  0
   12.1277   -4.1587    0.0000 C   0  0  0  0  0  0  0  0  0  0  0  0
   12.3882   -5.6359    0.0000 C   0  0  0  0  0  0  0  0  0  0  0  0
   11.2391   -6.6001    0.0000 C   0  0  0  0  0  0  0  0  0  0  0  0
   11.4996   -8.0773    0.0000 C   0  0  0  0  0  0  0  0  0  0  0  0
   12.9091   -8.5903    0.0000 C   0  0  0  0  0  0  0  0  0  0  0  0
   13.1696  -10.0675    0.0000 C   0  0  0  0  0  0  0  0  0  0  0  0
   12.0205  -11.0317    0.0000 C   0  0  0  0  0  0  0  0  0  0  0  0
   10.6110  -10.5187    0.0000 C   0  0  0  0  0  0  0  0  0  0  0  0
   10.3505   -9.0414    0.0000 C   0  0  0  0  0  0  0  0  0  0  0  0
    7.4410  -11.1265    0.0000 C   0  0  0  0  0  0  0  0  0  0  0  0
    6.6910  -12.4255    0.0000 C   0  0  0  0  0  0  0  0  0  0  0  0
    1.5314  -14.2376    0.0000 N   0  0  0  0  0  0  0  0  0  0  0  0
    0.3824  -13.2734    0.0000 P   0  0  0  0  0  0  0  0  0  0  0  0
   -1.0272  -12.7604    0.0000 O   0  0  0  0  0  0  0  0  0  0  0  0
   -2.1763  -13.7246    0.0000 C   0  0  0  0  0  0  0  0  0  0  0  0
   -3.5858  -13.2115    0.0000 C   0  0  0  0  0  0  0  0  0  0  0  0
   -4.7349  -14.1757    0.0000 C   0  0  0  0  0  0  0  0  0  0  0  0
   -4.4744  -15.6529    0.0000 C   0  0  0  0  0  0  0  0  0  0  0  0
   -5.6235  -16.6171    0.0000 C   0  0  0  0  0  0  0  0  0  0  0  0
   -7.0330  -16.1041    0.0000 N   0  0  0  0  0  0  0  0  0  0  0  0
   -8.1821  -17.0683    0.0000 C   0  0  0  0  0  0  0  0  0  0  0  0
   -9.5916  -16.5552    0.0000 C   0  0  0  0  0  0  0  0  0  0  0  0
  -10.7407  -17.5194    0.0000 C   0  0  0  0  0  0  0  0  0  0  0  0
  -10.4802  -18.9966    0.0000 C   0  0  0  0  0  0  0  0  0  0  0  0
  -11.6293  -19.9608    0.0000 O   0  0  0  0  0  0  0  0  0  0  0  0
   -9.0707  -19.5097    0.0000 C   0  0  0  0  0  0  0  0  0  0  0  0
   -7.9216  -18.5455    0.0000 C   0  0  0  0  0  0  0  0  0  0  0  0
   -5.3630  -18.0943    0.0000 P   0  0  0  0  0  0  0  0  0  0  0  0
   -3.9534  -17.5813    0.0000 O   0  0  0  0  0  0  0  0  0  0  0  0
   -6.8630  -18.0943    0.0000 O   0  0  0  0  0  0  0  0  0  0  0  0
   -7.6130  -19.3934    0.0000 C   0  0  0  0  0  0  0  0  0  0  0  0
   -9.1130  -19.3934    0.0000 C   0  0  0  0  0  0  0  0  0  0  0  0
   -9.8630  -20.6924    0.0000 C   0  0  0  0  0  0  0  0  0  0  0  0
   -9.1130  -21.9914    0.0000 C   0  0  0  0  0  0  0  0  0  0  0  0
   -7.6130  -21.9914    0.0000 C   0  0  0  0  0  0  0  0  0  0  0  0
   -6.8630  -20.6924    0.0000 C   0  0  0  0  0  0  0  0  0  0  0  0
   -5.3630  -20.6924    0.0000 C   0  0  0  0  0  0  0  0  0  0  0  0
   -4.6130  -21.9914    0.0000 C   0  0  0  0  0  0  0  0  0  0  0  0
   -3.1130  -21.9914    0.0000 C   0  0  0  0  0  0  0  0  0  0  0  0
   -2.3630  -20.6924    0.0000 C   0  0  0  0  0  0  0  0  0  0  0  0
   -3.1130  -19.3934    0.0000 C   0  0  0  0  0  0  0  0  0  0  0  0
   -4.6130  -19.3934    0.0000 C   0  0  0  0  0  0  0  0  0  0  0  0
   -3.0648  -16.1660    0.0000 C   0  0  0  0  0  0  0  0  0  0  0  0
   -1.9158  -15.2018    0.0000 C   0  0  0  0  0  0  0  0  0  0  0  0
   -0.3676  -14.5725    0.0000 O   0  0  0  0  0  0  0  0  0  0  0  0
   -1.8676  -14.5725    0.0000 C   0  0  0  0  0  0  0  0  0  0  0  0
   -2.6176  -13.2734    0.0000 C   0  0  0  0  0  0  0  0  0  0  0  0
   -4.1176  -13.2734    0.0000 C   0  0  0  0  0  0  0  0  0  0  0  0
   -4.8676  -14.5725    0.0000 C   0  0  0  0  0  0  0  0  0  0  0  0
   -6.3676  -14.5725    0.0000 C   0  0  0  0  0  0  0  0  0  0  0  0
   -7.1176  -13.2734    0.0000 N   0  0  0  0  0  0  0  0  0  0  0  0
   -8.6176  -13.2734    0.0000 C   0  0  0  0  0  0  0  0  0  0  0  0
   -9.3676  -11.9744    0.0000 C   0  0  0  0  0  0  0  0  0  0  0  0
  -10.6667  -11.2244    0.0000 C   0  0  0  0  0  0  0  0  0  0  0  0
   -9.3676  -10.4744    0.0000 O   0  0  0  0  0  0  0  0  0  0  0  0
   -6.3676  -11.9744    0.0000 C   0  0  0  0  0  0  0  0  0  0  0  0
   -4.8676  -11.9744    0.0000 C   0  0  0  0  0  0  0  0  0  0  0  0
   -4.1176  -10.6753    0.0000 C   0  0  0  0  0  0  0  0  0  0  0  0
   -4.8676   -9.3763    0.0000 C   0  0  0  0  0  0  0  0  0  0  0  0
   -4.1176   -8.0773    0.0000 O   0  0  0  0  0  0  0  0  0  0  0  0
   -6.3676   -9.3763    0.0000 C   0  0  0  0  0  0  0  0  0  0  0  0
   -7.1176  -10.6753    0.0000 C   0  0  0  0  0  0  0  0  0  0  0  0
   -7.1176  -15.8715    0.0000 P   0  0  0  0  0  0  0  0  0  0  0  0
   -5.8741  -16.7103    0.0000 O   0  0  0  0  0  0  0  0  0  0  0  0
   -8.2667  -14.9073    0.0000 O   0  0  0  0  0  0  0  0  0  0  0  0
   -9.6763  -15.4203    0.0000 C   0  0  0  0  0  0  0  0  0  0  0  0
  -10.8253  -14.4562    0.0000 C   0  0  0  0  0  0  0  0  0  0  0  0
  -12.2349  -14.9692    0.0000 C   0  0  0  0  0  0  0  0  0  0  0  0
  -12.4953  -16.4464    0.0000 C   0  0  0  0  0  0  0  0  0  0  0  0
  -11.3463  -17.4106    0.0000 C   0  0  0  0  0  0  0  0  0  0  0  0
   -9.9367  -16.8976    0.0000 C   0  0  0  0  0  0  0  0  0  0  0  0
   -8.7877  -17.8617    0.0000 C   0  0  0  0  0  0  0  0  0  0  0  0
   -9.0481  -19.3389    0.0000 C   0  0  0  0  0  0  0  0  0  0  0  0
   -7.8991  -20.3031    0.0000 C   0  0  0  0  0  0  0  0  0  0  0  0
   -6.4895  -19.7901    0.0000 C   0  0  0  0  0  0  0  0  0  0  0  0
   -6.2291  -18.3129    0.0000 C   0  0  0  0  0  0  0  0  0  0  0  0
   -7.3781  -17.3487    0.0000 C   0  0  0  0  0  0  0  0  0  0  0  0
   -4.1176  -15.8715    0.0000 C   0  0  0  0  0  0  0  0  0  0  0  0
   -2.6176  -15.8715    0.0000 C   0  0  0  0  0  0  0  0  0  0  0  0
    0.6428  -11.7962    0.0000 N   0  0  0  0  0  0  0  0  0  0  0  0
   -0.9476   -8.6851    0.0000 C   0  0  0  0  0  0  0  0  0  0  0  0
   -2.4476   -8.6851    0.0000 C   0  0  0  0  0  0  0  0  0  0  0  0
   -6.5967  -10.3190    0.0000 O   0  0  0  0  0  0  0  0  0  0  0  0
   -8.0062  -10.8320    0.0000 C   0  0  0  0  0  0  0  0  0  0  0  0
   -9.1553   -9.8678    0.0000 C   0  0  0  0  0  0  0  0  0  0  0  0
  -10.5648  -10.3809    0.0000 C   0  0  0  0  0  0  0  0  0  0  0  0
  -10.8253  -11.8581    0.0000 C   0  0  0  0  0  0  0  0  0  0  0  0
   -9.6763  -12.8223    0.0000 C   0  0  0  0  0  0  0  0  0  0  0  0
   -8.2667  -12.3092    0.0000 C   0  0  0  0  0  0  0  0  0  0  0  0
   -7.1176  -13.2734    0.0000 C   0  0  0  0  0  0  0  0  0  0  0  0
   -7.3781  -14.7506    0.0000 C   0  0  0  0  0  0  0  0  0  0  0  0
   -6.2291  -15.7148    0.0000 C   0  0  0  0  0  0  0  0  0  0  0  0
   -4.8195  -15.2018    0.0000 C   0  0  0  0  0  0  0  0  0  0  0  0
   -4.5590  -13.7246    0.0000 C   0  0  0  0  0  0  0  0  0  0  0  0
   -5.7081  -12.7604    0.0000 C   0  0  0  0  0  0  0  0  0  0  0  0
  1  2  2  0
  2  3  1  0
  3  4  1  0
  4  5  1  0
  5  6  2  0
  6  7  1  0
  7  8  2  0
  8  9  1  0
  8 10  1  0
 10 11  2  0
  3 12  1  0
 12 13  2  0
 13 14  1  0
 14 15  2  0
 15 16  1  0
 16 17  1  0
 17 18  1  0
 18 19  1  0
 19 20  2  0
 20 21  1  0
 21 22  2  0
 22 23  1  0
 23 24  1  0
 24 25  1  0
 25 26  2  0
 26 27  1  0
 27 28  2  0
 28 29  1  0
 28 30  1  0
 30 31  2  0
 23 32  1  0
 32 33  2  0
 32 34  1  0
 34 35  1  0
 35 36  2  0
 36 37  1  0
 37 38  2  0
 38 39  1  0
 39 40  2  0
 40 41  1  0
 41 42  2  0
 42 43  1  0
 43 44  2  0
 44 45  1  0
 45 46  2  0
 22 47  1  0
 47 48  2  0
 17 49  2  0
 49 50  1  0
 50 51  1  0
 51 52  1  0
 52 53  2  0
 53 54  1  0
 54 55  2  0
 55 56  1  0
 56 57  1  0
 57 58  1  0
 58 59  2  0
 59 60  1  0
 60 61  2  0
 61 62  1  0
 61 63  1  0
 63 64  2  0
 56 65  1  0
 65 66  2  0
 65 67  1  0
 67 68  1  0
 68 69  2  0
 69 70  1  0
 70 71  2  0
 71 72  1  0
 72 73  2  0
 73 74  1  0
 74 75  2  0
 75 76  1  0
 76 77  2  0
 77 78  1  0
 78 79  2  0
 55 80  1  0
 80 81  2  0
 50 82  1  0
 82 83  1  0
 83 84  2  0
 84 85  1  0
 85 86  2  0
 86 87  1  0
 87 88  1  0
 88 89  1  0
 89 90  2  0
 90 91  1  0
 91 92  2  0
 92 93  1  0
 92 94  1  0
 94 95  2  0
 87 96  1  0
 96 97  2  0
 96 98  1  0
 98 99  1  0
 99100  2  0
100101  1  0
101102  2  0
102103  1  0
103104  2  0
104105  1  0
105106  2  0
106107  1  0
107108  2  0
108109  1  0
109110  2  0
 86111  1  0
111112  2  0
 50113  2  0
113114  1  0
114115  1  0
115116  1  0
116117  2  0
117118  1  0
118119  2  0
119120  1  0
120121  1  0
121122  1  0
122123  2  0
123124  1  0
124125  2  0
125126  1  0
125127  1  0
127128  2  0
120129  1  0
129130  2  0
129131  1  0
131132  1  0
132133  2  0
133134  1  0
134135  2  0
135136  1  0
136137  2  0
137138  1  0
138139  2  0
139140  1  0
140141  2  0
141142  1  0
142143  2  0
119144  1  0
144145  2  0
114146  1  0
146147  1  0
147148  2  0
148149  1  0
149150  2  0
150151  1  0
151152  1  0
152153  1  0
153154  1  0
154155  1  0
155156  1  0
152157  1  0
157158  2  0
158159  1  0
159160  2  0
160161  1  0
160162  1  0
162163  2  0
151164  1  0
164165  2  0
164166  1  0
166167  1  0
167168  2  0
168169  1  0
169170  2  0
170171  1  0
171172  2  0
172173  1  0
173174  2  0
174175  1  0
175176  2  0
176177  1  0
177178  2  0
150179  1  0
179180  2  0
114181  2  0
 15182  1  0
182183  2  0
  2184  1  0
184185  1  0
185186  2  0
186187  1  0
187188  2  0
188189  1  0
189190  2  0
190191  1  0
191192  2  0
192193  1  0
193194  2  0
194195  1  0
195196  2  0
196  2  1  0
 11  5  1  0
183 12  1  0
190185  1  0
196191  1  0
181 17  1  0
 48 19  1  0
 81 52  1  0
112 83  1  0
145116  1  0
180147  1  0
 31 25  1  0
 46 32  1  0
 64 58  1  0
 79 65  1  0
 95 89  1  0
110 96  1  0
128122  1  0
143129  1  0
156154  1  0
163157  1  0
178164  1  0
 40 35  1  0
 46 41  1  0
 73 68  1  0
 79 74  1  0
104 99  1  0
110105  1  0
137132  1  0
143138  1  0
172167  1  0
178173  1  0
M  END
>  <Candidate_ID>  (42) 
CAND_R2_042

>  <Candidate_Name>  (42) 
CTP-DOPO-NH-glycidyl

>  <Parent_Seed_ID>  (42) 
TRAIN_041

>  <Parent_Name>  (42) 
CTP-DOPO

>  <Transformation_Code>  (42) 
NH_glycidyl

>  <Design_Family>  (42) 
P-N

>  <Preparation_Type>  (42) 
Co-curing

>  <Synthesis_Level>  (42) 
C

>  <Parent_Tanimoto_r3>  (42) 
0.7075471698113207

>  <Max_Train_Tanimoto_r3>  (42) 
0.7075471698113207

>  <Risk_Flags>  (42) 
high molecular weight; high DOPO count; exploratory only; excluded from formal screening

$$$$
CAND_R2_043 | CTP-DOPO-NH-glycidyl-all
     RDKit          2D

216252  0  0  0  0  0  0  0  0999 V2000
   -4.0381  -11.7962    0.0000 O   0  0  0  0  0  0  0  0  0  0  0  0
   -5.4476  -11.2832    0.0000 P   0  0  0  0  0  0  0  0  0  0  0  0
   -4.6976   -9.9841    0.0000 C   0  0  0  0  0  0  0  0  0  0  0  0
   -3.1976   -9.9841    0.0000 C   0  0  0  0  0  0  0  0  0  0  0  0
   -2.4476  -11.2832    0.0000 C   0  0  0  0  0  0  0  0  0  0  0  0
   -0.9476  -11.2832    0.0000 C   0  0  0  0  0  0  0  0  0  0  0  0
   -0.1976   -9.9841    0.0000 C   0  0  0  0  0  0  0  0  0  0  0  0
    1.3024   -9.9841    0.0000 O   0  0  0  0  0  0  0  0  0  0  0  0
    2.0524  -11.2832    0.0000 P   0  0  0  0  0  0  0  0  0  0  0  0
    3.2014  -10.3190    0.0000 O   0  0  0  0  0  0  0  0  0  0  0  0
    2.9410   -8.8418    0.0000 C   0  0  0  0  0  0  0  0  0  0  0  0
    4.0900   -7.8776    0.0000 C   0  0  0  0  0  0  0  0  0  0  0  0
    3.8296   -6.4004    0.0000 C   0  0  0  0  0  0  0  0  0  0  0  0
    2.4200   -5.8874    0.0000 C   0  0  0  0  0  0  0  0  0  0  0  0
    2.1595   -4.4101    0.0000 C   0  0  0  0  0  0  0  0  0  0  0  0
    3.3086   -3.4460    0.0000 N   0  0  0  0  0  0  0  0  0  0  0  0
    4.7181   -3.9590    0.0000 C   0  0  0  0  0  0  0  0  0  0  0  0
    5.8672   -2.9948    0.0000 C   0  0  0  0  0  0  0  0  0  0  0  0
    6.3802   -1.5853    0.0000 C   0  0  0  0  0  0  0  0  0  0  0  0
    7.3444   -2.7343    0.0000 O   0  0  0  0  0  0  0  0  0  0  0  0
    3.0481   -1.9688    0.0000 C   0  0  0  0  0  0  0  0  0  0  0  0
    4.1972   -1.0046    0.0000 C   0  0  0  0  0  0  0  0  0  0  0  0
    3.9367    0.4726    0.0000 C   0  0  0  0  0  0  0  0  0  0  0  0
    2.5272    0.9857    0.0000 C   0  0  0  0  0  0  0  0  0  0  0  0
    2.2667    2.4629    0.0000 O   0  0  0  0  0  0  0  0  0  0  0  0
    1.3781    0.0215    0.0000 C   0  0  0  0  0  0  0  0  0  0  0  0
    1.6386   -1.4557    0.0000 C   0  0  0  0  0  0  0  0  0  0  0  0
    0.7500   -3.8971    0.0000 P   0  0  0  0  0  0  0  0  0  0  0  0
    1.5000   -2.5981    0.0000 O   0  0  0  0  0  0  0  0  0  0  0  0
    0.4895   -5.3743    0.0000 O   0  0  0  0  0  0  0  0  0  0  0  0
   -0.9200   -5.8874    0.0000 C   0  0  0  0  0  0  0  0  0  0  0  0
   -1.1805   -7.3646    0.0000 C   0  0  0  0  0  0  0  0  0  0  0  0
   -2.5900   -7.8776    0.0000 C   0  0  0  0  0  0  0  0  0  0  0  0
   -3.7391   -6.9134    0.0000 C   0  0  0  0  0  0  0  0  0  0  0  0
   -3.4786   -5.4362    0.0000 C   0  0  0  0  0  0  0  0  0  0  0  0
   -2.0691   -4.9232    0.0000 C   0  0  0  0  0  0  0  0  0  0  0  0
   -1.8086   -3.4460    0.0000 C   0  0  0  0  0  0  0  0  0  0  0  0
   -2.9577   -2.4818    0.0000 C   0  0  0  0  0  0  0  0  0  0  0  0
   -2.6972   -1.0046    0.0000 C   0  0  0  0  0  0  0  0  0  0  0  0
   -1.2877   -0.4915    0.0000 C   0  0  0  0  0  0  0  0  0  0  0  0
   -0.1386   -1.4557    0.0000 C   0  0  0  0  0  0  0  0  0  0  0  0
   -0.3991   -2.9329    0.0000 C   0  0  0  0  0  0  0  0  0  0  0  0
    1.2709   -6.8515    0.0000 C   0  0  0  0  0  0  0  0  0  0  0  0
    1.5314   -8.3287    0.0000 C   0  0  0  0  0  0  0  0  0  0  0  0
    3.2014  -12.2474    0.0000 N   0  0  0  0  0  0  0  0  0  0  0  0
    2.9410  -13.7246    0.0000 P   0  0  0  0  0  0  0  0  0  0  0  0
    3.2014  -15.2018    0.0000 O   0  0  0  0  0  0  0  0  0  0  0  0
    4.6110  -15.7148    0.0000 C   0  0  0  0  0  0  0  0  0  0  0  0
    4.8714  -17.1920    0.0000 C   0  0  0  0  0  0  0  0  0  0  0  0
    6.2810  -17.7050    0.0000 C   0  0  0  0  0  0  0  0  0  0  0  0
    7.4300  -16.7409    0.0000 C   0  0  0  0  0  0  0  0  0  0  0  0
    8.8396  -17.2539    0.0000 C   0  0  0  0  0  0  0  0  0  0  0  0
    9.1001  -18.7311    0.0000 N   0  0  0  0  0  0  0  0  0  0  0  0
   10.5096  -19.2441    0.0000 C   0  0  0  0  0  0  0  0  0  0  0  0
   10.7701  -20.7214    0.0000 C   0  0  0  0  0  0  0  0  0  0  0  0
   11.7342  -21.8704    0.0000 C   0  0  0  0  0  0  0  0  0  0  0  0
   10.2570  -22.1309    0.0000 O   0  0  0  0  0  0  0  0  0  0  0  0
    7.9510  -19.6953    0.0000 C   0  0  0  0  0  0  0  0  0  0  0  0
    6.5415  -19.1823    0.0000 C   0  0  0  0  0  0  0  0  0  0  0  0
    5.3924  -20.1464    0.0000 C   0  0  0  0  0  0  0  0  0  0  0  0
    5.6529  -21.6237    0.0000 C   0  0  0  0  0  0  0  0  0  0  0  0
    4.5038  -22.5878    0.0000 O   0  0  0  0  0  0  0  0  0  0  0  0
    7.0624  -22.1367    0.0000 C   0  0  0  0  0  0  0  0  0  0  0  0
    8.2115  -21.1725    0.0000 C   0  0  0  0  0  0  0  0  0  0  0  0
    9.9887  -16.2897    0.0000 P   0  0  0  0  0  0  0  0  0  0  0  0
    8.8396  -15.3255    0.0000 O   0  0  0  0  0  0  0  0  0  0  0  0
   10.7387  -17.5888    0.0000 O   0  0  0  0  0  0  0  0  0  0  0  0
   12.2387  -17.5888    0.0000 C   0  0  0  0  0  0  0  0  0  0  0  0
   12.9887  -18.8878    0.0000 C   0  0  0  0  0  0  0  0  0  0  0  0
   14.4887  -18.8878    0.0000 C   0  0  0  0  0  0  0  0  0  0  0  0
   15.2387  -17.5888    0.0000 C   0  0  0  0  0  0  0  0  0  0  0  0
   14.4887  -16.2897    0.0000 C   0  0  0  0  0  0  0  0  0  0  0  0
   12.9887  -16.2897    0.0000 C   0  0  0  0  0  0  0  0  0  0  0  0
   12.2387  -14.9907    0.0000 C   0  0  0  0  0  0  0  0  0  0  0  0
   12.9887  -13.6916    0.0000 C   0  0  0  0  0  0  0  0  0  0  0  0
   12.2387  -12.3926    0.0000 C   0  0  0  0  0  0  0  0  0  0  0  0
   10.7387  -12.3926    0.0000 C   0  0  0  0  0  0  0  0  0  0  0  0
    9.9887  -13.6916    0.0000 C   0  0  0  0  0  0  0  0  0  0  0  0
   10.7387  -14.9907    0.0000 C   0  0  0  0  0  0  0  0  0  0  0  0
    7.1696  -15.2637    0.0000 C   0  0  0  0  0  0  0  0  0  0  0  0
    5.7600  -14.7506    0.0000 C   0  0  0  0  0  0  0  0  0  0  0  0
    4.4410  -13.7246    0.0000 O   0  0  0  0  0  0  0  0  0  0  0  0
    5.1910  -12.4255    0.0000 C   0  0  0  0  0  0  0  0  0  0  0  0
    4.4410  -11.1265    0.0000 C   0  0  0  0  0  0  0  0  0  0  0  0
    5.1910   -9.8275    0.0000 C   0  0  0  0  0  0  0  0  0  0  0  0
    6.6910   -9.8275    0.0000 C   0  0  0  0  0  0  0  0  0  0  0  0
    7.4410   -8.5284    0.0000 C   0  0  0  0  0  0  0  0  0  0  0  0
    6.6910   -7.2294    0.0000 N   0  0  0  0  0  0  0  0  0  0  0  0
    5.1910   -7.2294    0.0000 C   0  0  0  0  0  0  0  0  0  0  0  0
    4.4410   -5.9303    0.0000 C   0  0  0  0  0  0  0  0  0  0  0  0
    3.1419   -5.1803    0.0000 C   0  0  0  0  0  0  0  0  0  0  0  0
    4.4410   -4.4303    0.0000 O   0  0  0  0  0  0  0  0  0  0  0  0
    7.4410   -5.9303    0.0000 C   0  0  0  0  0  0  0  0  0  0  0  0
    8.9410   -5.9303    0.0000 C   0  0  0  0  0  0  0  0  0  0  0  0
    9.6910   -4.6313    0.0000 C   0  0  0  0  0  0  0  0  0  0  0  0
    8.9410   -3.3323    0.0000 C   0  0  0  0  0  0  0  0  0  0  0  0
    9.6910   -2.0332    0.0000 O   0  0  0  0  0  0  0  0  0  0  0  0
    7.4410   -3.3323    0.0000 C   0  0  0  0  0  0  0  0  0  0  0  0
    6.6910   -4.6313    0.0000 C   0  0  0  0  0  0  0  0  0  0  0  0
    8.9410   -8.5284    0.0000 P   0  0  0  0  0  0  0  0  0  0  0  0
    8.6805  -10.0056    0.0000 O   0  0  0  0  0  0  0  0  0  0  0  0
    8.6805   -7.0512    0.0000 O   0  0  0  0  0  0  0  0  0  0  0  0
    9.8296   -6.0870    0.0000 C   0  0  0  0  0  0  0  0  0  0  0  0
    9.5691   -4.6098    0.0000 C   0  0  0  0  0  0  0  0  0  0  0  0
   10.7181   -3.6456    0.0000 C   0  0  0  0  0  0  0  0  0  0  0  0
   12.1277   -4.1587    0.0000 C   0  0  0  0  0  0  0  0  0  0  0  0
   12.3882   -5.6359    0.0000 C   0  0  0  0  0  0  0  0  0  0  0  0
   11.2391   -6.6001    0.0000 C   0  0  0  0  0  0  0  0  0  0  0  0
   11.4996   -8.0773    0.0000 C   0  0  0  0  0  0  0  0  0  0  0  0
   12.9091   -8.5903    0.0000 C   0  0  0  0  0  0  0  0  0  0  0  0
   13.1696  -10.0675    0.0000 C   0  0  0  0  0  0  0  0  0  0  0  0
   12.0205  -11.0317    0.0000 C   0  0  0  0  0  0  0  0  0  0  0  0
   10.6110  -10.5187    0.0000 C   0  0  0  0  0  0  0  0  0  0  0  0
   10.3505   -9.0414    0.0000 C   0  0  0  0  0  0  0  0  0  0  0  0
    7.4410  -11.1265    0.0000 C   0  0  0  0  0  0  0  0  0  0  0  0
    6.6910  -12.4255    0.0000 C   0  0  0  0  0  0  0  0  0  0  0  0
    1.5314  -14.2376    0.0000 N   0  0  0  0  0  0  0  0  0  0  0  0
    0.3824  -13.2734    0.0000 P   0  0  0  0  0  0  0  0  0  0  0  0
   -1.0272  -12.7604    0.0000 O   0  0  0  0  0  0  0  0  0  0  0  0
   -2.1763  -13.7246    0.0000 C   0  0  0  0  0  0  0  0  0  0  0  0
   -3.5858  -13.2115    0.0000 C   0  0  0  0  0  0  0  0  0  0  0  0
   -4.7349  -14.1757    0.0000 C   0  0  0  0  0  0  0  0  0  0  0  0
   -4.4744  -15.6529    0.0000 C   0  0  0  0  0  0  0  0  0  0  0  0
   -5.6235  -16.6171    0.0000 C   0  0  0  0  0  0  0  0  0  0  0  0
   -7.0330  -16.1041    0.0000 N   0  0  0  0  0  0  0  0  0  0  0  0
   -8.1821  -17.0683    0.0000 C   0  0  0  0  0  0  0  0  0  0  0  0
   -9.5916  -16.5552    0.0000 C   0  0  0  0  0  0  0  0  0  0  0  0
  -11.0688  -16.8157    0.0000 C   0  0  0  0  0  0  0  0  0  0  0  0
  -10.5558  -15.4062    0.0000 O   0  0  0  0  0  0  0  0  0  0  0  0
   -7.2935  -14.6269    0.0000 C   0  0  0  0  0  0  0  0  0  0  0  0
   -6.1444  -13.6627    0.0000 C   0  0  0  0  0  0  0  0  0  0  0  0
   -6.4049  -12.1855    0.0000 C   0  0  0  0  0  0  0  0  0  0  0  0
   -7.8144  -11.6724    0.0000 C   0  0  0  0  0  0  0  0  0  0  0  0
   -8.4246  -10.3022    0.0000 O   0  0  0  0  0  0  0  0  0  0  0  0
   -8.9635  -12.6366    0.0000 C   0  0  0  0  0  0  0  0  0  0  0  0
   -8.7030  -14.1138    0.0000 C   0  0  0  0  0  0  0  0  0  0  0  0
   -5.3630  -18.0943    0.0000 P   0  0  0  0  0  0  0  0  0  0  0  0
   -3.9534  -17.5813    0.0000 O   0  0  0  0  0  0  0  0  0  0  0  0
   -6.8630  -18.0943    0.0000 O   0  0  0  0  0  0  0  0  0  0  0  0
   -7.6130  -19.3934    0.0000 C   0  0  0  0  0  0  0  0  0  0  0  0
   -9.1130  -19.3934    0.0000 C   0  0  0  0  0  0  0  0  0  0  0  0
   -9.8630  -20.6924    0.0000 C   0  0  0  0  0  0  0  0  0  0  0  0
   -9.1130  -21.9914    0.0000 C   0  0  0  0  0  0  0  0  0  0  0  0
   -7.6130  -21.9914    0.0000 C   0  0  0  0  0  0  0  0  0  0  0  0
   -6.8630  -20.6924    0.0000 C   0  0  0  0  0  0  0  0  0  0  0  0
   -5.3630  -20.6924    0.0000 C   0  0  0  0  0  0  0  0  0  0  0  0
   -4.6130  -21.9914    0.0000 C   0  0  0  0  0  0  0  0  0  0  0  0
   -3.1130  -21.9914    0.0000 C   0  0  0  0  0  0  0  0  0  0  0  0
   -2.3630  -20.6924    0.0000 C   0  0  0  0  0  0  0  0  0  0  0  0
   -3.1130  -19.3934    0.0000 C   0  0  0  0  0  0  0  0  0  0  0  0
   -4.6130  -19.3934    0.0000 C   0  0  0  0  0  0  0  0  0  0  0  0
   -3.0648  -16.1660    0.0000 C   0  0  0  0  0  0  0  0  0  0  0  0
   -1.9158  -15.2018    0.0000 C   0  0  0  0  0  0  0  0  0  0  0  0
   -0.3676  -14.5725    0.0000 O   0  0  0  0  0  0  0  0  0  0  0  0
   -1.8676  -14.5725    0.0000 C   0  0  0  0  0  0  0  0  0  0  0  0
   -2.6176  -13.2734    0.0000 C   0  0  0  0  0  0  0  0  0  0  0  0
   -4.1176  -13.2734    0.0000 C   0  0  0  0  0  0  0  0  0  0  0  0
   -4.8676  -14.5725    0.0000 C   0  0  0  0  0  0  0  0  0  0  0  0
   -6.3676  -14.5725    0.0000 C   0  0  0  0  0  0  0  0  0  0  0  0
   -7.1176  -13.2734    0.0000 N   0  0  0  0  0  0  0  0  0  0  0  0
   -8.6176  -13.2734    0.0000 C   0  0  0  0  0  0  0  0  0  0  0  0
   -9.3676  -11.9744    0.0000 C   0  0  0  0  0  0  0  0  0  0  0  0
  -10.6667  -11.2244    0.0000 C   0  0  0  0  0  0  0  0  0  0  0  0
   -9.3676  -10.4744    0.0000 O   0  0  0  0  0  0  0  0  0  0  0  0
   -6.3676  -11.9744    0.0000 C   0  0  0  0  0  0  0  0  0  0  0  0
   -4.8676  -11.9744    0.0000 C   0  0  0  0  0  0  0  0  0  0  0  0
   -4.1176  -10.6753    0.0000 C   0  0  0  0  0  0  0  0  0  0  0  0
   -4.8676   -9.3763    0.0000 C   0  0  0  0  0  0  0  0  0  0  0  0
   -4.1176   -8.0773    0.0000 O   0  0  0  0  0  0  0  0  0  0  0  0
   -6.3676   -9.3763    0.0000 C   0  0  0  0  0  0  0  0  0  0  0  0
   -7.1176  -10.6753    0.0000 C   0  0  0  0  0  0  0  0  0  0  0  0
   -7.1176  -15.8715    0.0000 P   0  0  0  0  0  0  0  0  0  0  0  0
   -5.8741  -16.7103    0.0000 O   0  0  0  0  0  0  0  0  0  0  0  0
   -8.2667  -14.9073    0.0000 O   0  0  0  0  0  0  0  0  0  0  0  0
   -9.6763  -15.4203    0.0000 C   0  0  0  0  0  0  0  0  0  0  0  0
  -10.8253  -14.4562    0.0000 C   0  0  0  0  0  0  0  0  0  0  0  0
  -12.2349  -14.9692    0.0000 C   0  0  0  0  0  0  0  0  0  0  0  0
  -12.4953  -16.4464    0.0000 C   0  0  0  0  0  0  0  0  0  0  0  0
  -11.3463  -17.4106    0.0000 C   0  0  0  0  0  0  0  0  0  0  0  0
   -9.9367  -16.8976    0.0000 C   0  0  0  0  0  0  0  0  0  0  0  0
   -8.7877  -17.8617    0.0000 C   0  0  0  0  0  0  0  0  0  0  0  0
   -9.0481  -19.3389    0.0000 C   0  0  0  0  0  0  0  0  0  0  0  0
   -7.8991  -20.3031    0.0000 C   0  0  0  0  0  0  0  0  0  0  0  0
   -6.4895  -19.7901    0.0000 C   0  0  0  0  0  0  0  0  0  0  0  0
   -6.2291  -18.3129    0.0000 C   0  0  0  0  0  0  0  0  0  0  0  0
   -7.3781  -17.3487    0.0000 C   0  0  0  0  0  0  0  0  0  0  0  0
   -4.1176  -15.8715    0.0000 C   0  0  0  0  0  0  0  0  0  0  0  0
   -2.6176  -15.8715    0.0000 C   0  0  0  0  0  0  0  0  0  0  0  0
    0.6428  -11.7962    0.0000 N   0  0  0  0  0  0  0  0  0  0  0  0
   -0.9476   -8.6851    0.0000 C   0  0  0  0  0  0  0  0  0  0  0  0
   -2.4476   -8.6851    0.0000 C   0  0  0  0  0  0  0  0  0  0  0  0
   -5.4476   -8.6851    0.0000 N   0  0  0  0  0  0  0  0  0  0  0  0
   -6.9476   -8.6851    0.0000 C   0  0  0  0  0  0  0  0  0  0  0  0
   -7.6976   -7.3861    0.0000 C   0  0  0  0  0  0  0  0  0  0  0  0
   -8.9967   -6.6361    0.0000 C   0  0  0  0  0  0  0  0  0  0  0  0
   -7.6976   -5.8861    0.0000 O   0  0  0  0  0  0  0  0  0  0  0  0
   -4.6976   -7.3861    0.0000 C   0  0  0  0  0  0  0  0  0  0  0  0
   -3.1976   -7.3861    0.0000 C   0  0  0  0  0  0  0  0  0  0  0  0
   -2.4476   -6.0870    0.0000 C   0  0  0  0  0  0  0  0  0  0  0  0
   -3.1976   -4.7880    0.0000 C   0  0  0  0  0  0  0  0  0  0  0  0
   -2.7843   -3.3461    0.0000 O   0  0  0  0  0  0  0  0  0  0  0  0
   -4.6976   -4.7880    0.0000 C   0  0  0  0  0  0  0  0  0  0  0  0
   -5.4476   -6.0870    0.0000 C   0  0  0  0  0  0  0  0  0  0  0  0
   -6.5967  -10.3190    0.0000 O   0  0  0  0  0  0  0  0  0  0  0  0
   -8.0062  -10.8320    0.0000 C   0  0  0  0  0  0  0  0  0  0  0  0
   -9.1553   -9.8678    0.0000 C   0  0  0  0  0  0  0  0  0  0  0  0
  -10.5648  -10.3809    0.0000 C   0  0  0  0  0  0  0  0  0  0  0  0
  -10.8253  -11.8581    0.0000 C   0  0  0  0  0  0  0  0  0  0  0  0
   -9.6763  -12.8223    0.0000 C   0  0  0  0  0  0  0  0  0  0  0  0
   -8.2667  -12.3092    0.0000 C   0  0  0  0  0  0  0  0  0  0  0  0
   -7.1176  -13.2734    0.0000 C   0  0  0  0  0  0  0  0  0  0  0  0
   -7.3781  -14.7506    0.0000 C   0  0  0  0  0  0  0  0  0  0  0  0
   -6.2291  -15.7148    0.0000 C   0  0  0  0  0  0  0  0  0  0  0  0
   -4.8195  -15.2018    0.0000 C   0  0  0  0  0  0  0  0  0  0  0  0
   -4.5590  -13.7246    0.0000 C   0  0  0  0  0  0  0  0  0  0  0  0
   -5.7081  -12.7604    0.0000 C   0  0  0  0  0  0  0  0  0  0  0  0
  1  2  2  0
  2  3  1  0
  3  4  1  0
  4  5  2  0
  5  6  1  0
  6  7  2  0
  7  8  1  0
  8  9  1  0
  9 10  1  0
 10 11  1  0
 11 12  2  0
 12 13  1  0
 13 14  2  0
 14 15  1  0
 15 16  1  0
 16 17  1  0
 17 18  1  0
 18 19  1  0
 19 20  1  0
 16 21  1  0
 21 22  2  0
 22 23  1  0
 23 24  2  0
 24 25  1  0
 24 26  1  0
 26 27  2  0
 15 28  1  0
 28 29  2  0
 28 30  1  0
 30 31  1  0
 31 32  2  0
 32 33  1  0
 33 34  2  0
 34 35  1  0
 35 36  2  0
 36 37  1  0
 37 38  2  0
 38 39  1  0
 39 40  2  0
 40 41  1  0
 41 42  2  0
 14 43  1  0
 43 44  2  0
  9 45  2  0
 45 46  1  0
 46 47  1  0
 47 48  1  0
 48 49  2  0
 49 50  1  0
 50 51  2  0
 51 52  1  0
 52 53  1  0
 53 54  1  0
 54 55  1  0
 55 56  1  0
 56 57  1  0
 53 58  1  0
 58 59  2  0
 59 60  1  0
 60 61  2  0
 61 62  1  0
 61 63  1  0
 63 64  2  0
 52 65  1  0
 65 66  2  0
 65 67  1  0
 67 68  1  0
 68 69  2  0
 69 70  1  0
 70 71  2  0
 71 72  1  0
 72 73  2  0
 73 74  1  0
 74 75  2  0
 75 76  1  0
 76 77  2  0
 77 78  1  0
 78 79  2  0
 51 80  1  0
 80 81  2  0
 46 82  1  0
 82 83  1  0
 83 84  2  0
 84 85  1  0
 85 86  2  0
 86 87  1  0
 87 88  1  0
 88 89  1  0
 89 90  1  0
 90 91  1  0
 91 92  1  0
 88 93  1  0
 93 94  2  0
 94 95  1  0
 95 96  2  0
 96 97  1  0
 96 98  1  0
 98 99  2  0
 87100  1  0
100101  2  0
100102  1  0
102103  1  0
103104  2  0
104105  1  0
105106  2  0
106107  1  0
107108  2  0
108109  1  0
109110  2  0
110111  1  0
111112  2  0
112113  1  0
113114  2  0
 86115  1  0
115116  2  0
 46117  2  0
117118  1  0
118119  1  0
119120  1  0
120121  2  0
121122  1  0
122123  2  0
123124  1  0
124125  1  0
125126  1  0
126127  1  0
127128  1  0
128129  1  0
125130  1  0
130131  2  0
131132  1  0
132133  2  0
133134  1  0
133135  1  0
135136  2  0
124137  1  0
137138  2  0
137139  1  0
139140  1  0
140141  2  0
141142  1  0
142143  2  0
143144  1  0
144145  2  0
145146  1  0
146147  2  0
147148  1  0
148149  2  0
149150  1  0
150151  2  0
123152  1  0
152153  2  0
118154  1  0
154155  1  0
155156  2  0
156157  1  0
157158  2  0
158159  1  0
159160  1  0
160161  1  0
161162  1  0
162163  1  0
163164  1  0
160165  1  0
165166  2  0
166167  1  0
167168  2  0
168169  1  0
168170  1  0
170171  2  0
159172  1  0
172173  2  0
172174  1  0
174175  1  0
175176  2  0
176177  1  0
177178  2  0
178179  1  0
179180  2  0
180181  1  0
181182  2  0
182183  1  0
183184  2  0
184185  1  0
185186  2  0
158187  1  0
187188  2  0
118189  2  0
  7190  1  0
190191  2  0
  3192  1  0
192193  1  0
193194  1  0
194195  1  0
195196  1  0
192197  1  0
197198  2  0
198199  1  0
199200  2  0
200201  1  0
200202  1  0
202203  2  0
  2204  1  0
204205  1  0
205206  2  0
206207  1  0
207208  2  0
208209  1  0
209210  2  0
210211  1  0
211212  2  0
212213  1  0
213214  2  0
214215  1  0
215216  2  0
216  2  1  0
191  4  1  0
196194  1  0
203197  1  0
210205  1  0
216211  1  0
189  9  1  0
 44 11  1  0
 81 48  1  0
116 83  1  0
153120  1  0
188155  1  0
 20 18  1  0
 27 21  1  0
 42 28  1  0
 57 55  1  0
 64 58  1  0
 79 65  1  0
 92 90  1  0
 99 93  1  0
114100  1  0
129127  1  0
136130  1  0
151137  1  0
164162  1  0
171165  1  0
186172  1  0
 36 31  1  0
 42 37  1  0
 73 68  1  0
 79 74  1  0
108103  1  0
114109  1  0
145140  1  0
151146  1  0
180175  1  0
186181  1  0
M  END
>  <Candidate_ID>  (43) 
CAND_R2_043

>  <Candidate_Name>  (43) 
CTP-DOPO-NH-glycidyl-all

>  <Parent_Seed_ID>  (43) 
TRAIN_041

>  <Parent_Name>  (43) 
CTP-DOPO

>  <Transformation_Code>  (43) 
NH_glycidyl_all

>  <Design_Family>  (43) 
P-N

>  <Preparation_Type>  (43) 
Co-curing

>  <Synthesis_Level>  (43) 
C

>  <Parent_Tanimoto_r3>  (43) 
0.5283018867924528

>  <Max_Train_Tanimoto_r3>  (43) 
0.5283018867924528

>  <Risk_Flags>  (43) 
high molecular weight; high DOPO count; large structural change from parent; candidate may be outside strict in-domain threshold; exploratory only; excluded from formal screening

$$$$
CAND_R2_044 | PBD-amino
     RDKit          2D

 75 85  0  0  0  0  0  0  0  0999 V2000
   -6.7725  -13.6008    0.0000 N   0  0  0  0  0  0  0  0  0  0  0  0
   -5.3630  -14.1138    0.0000 C   0  0  0  0  0  0  0  0  0  0  0  0
   -3.9534  -14.6269    0.0000 C   0  0  0  0  0  0  0  0  0  0  0  0
   -2.8044  -13.6627    0.0000 C   0  0  0  0  0  0  0  0  0  0  0  0
   -1.3948  -14.1757    0.0000 C   0  0  0  0  0  0  0  0  0  0  0  0
   -1.1344  -15.6529    0.0000 C   0  0  0  0  0  0  0  0  0  0  0  0
    0.2752  -16.1660    0.0000 O   0  0  0  0  0  0  0  0  0  0  0  0
    1.4242  -15.2018    0.0000 C   0  0  0  0  0  0  0  0  0  0  0  0
    2.8338  -15.7148    0.0000 C   0  0  0  0  0  0  0  0  0  0  0  0
    3.9828  -14.7506    0.0000 C   0  0  0  0  0  0  0  0  0  0  0  0
    3.7224  -13.2734    0.0000 C   0  0  0  0  0  0  0  0  0  0  0  0
    2.3128  -12.7604    0.0000 C   0  0  0  0  0  0  0  0  0  0  0  0
    2.0524  -11.2832    0.0000 N   0  0  0  0  0  0  0  0  0  0  0  0
    3.2014  -10.3190    0.0000 C   0  0  0  0  0  0  0  0  0  0  0  0
    2.9410   -8.8418    0.0000 C   0  0  0  0  0  0  0  0  0  0  0  0
    4.0900   -7.8776    0.0000 C   0  0  0  0  0  0  0  0  0  0  0  0
    3.8296   -6.4004    0.0000 C   0  0  0  0  0  0  0  0  0  0  0  0
    2.4200   -5.8874    0.0000 C   0  0  0  0  0  0  0  0  0  0  0  0
    2.1595   -4.4101    0.0000 C   0  0  0  0  0  0  0  0  0  0  0  0
    3.3086   -3.4460    0.0000 N   0  0  0  0  0  0  0  0  0  0  0  0
    4.7181   -3.9590    0.0000 C   0  0  0  0  0  0  0  0  0  0  0  0
    4.9786   -5.4362    0.0000 C   0  0  0  0  0  0  0  0  0  0  0  0
    6.3882   -5.9492    0.0000 C   0  0  0  0  0  0  0  0  0  0  0  0
    7.5372   -4.9851    0.0000 C   0  0  0  0  0  0  0  0  0  0  0  0
    7.2768   -3.5078    0.0000 C   0  0  0  0  0  0  0  0  0  0  0  0
    8.4258   -2.5437    0.0000 O   0  0  0  0  0  0  0  0  0  0  0  0
    9.8354   -3.0567    0.0000 C   0  0  0  0  0  0  0  0  0  0  0  0
   10.0958   -4.5339    0.0000 C   0  0  0  0  0  0  0  0  0  0  0  0
   11.5054   -5.0469    0.0000 C   0  0  0  0  0  0  0  0  0  0  0  0
   11.7658   -6.5241    0.0000 N   0  0  0  0  0  0  0  0  0  0  0  0
   12.6544   -4.0828    0.0000 C   0  0  0  0  0  0  0  0  0  0  0  0
   14.0640   -4.5958    0.0000 C   0  0  0  0  0  0  0  0  0  0  0  0
   15.4735   -5.1088    0.0000 N   0  0  0  0  0  0  0  0  0  0  0  0
   12.3940   -2.6055    0.0000 C   0  0  0  0  0  0  0  0  0  0  0  0
   13.5430   -1.6414    0.0000 C   0  0  0  0  0  0  0  0  0  0  0  0
   14.6921   -0.6772    0.0000 N   0  0  0  0  0  0  0  0  0  0  0  0
   10.9844   -2.0925    0.0000 C   0  0  0  0  0  0  0  0  0  0  0  0
    5.8672   -2.9948    0.0000 C   0  0  0  0  0  0  0  0  0  0  0  0
    0.7500   -3.8971    0.0000 P   0  0  0  0  0  0  0  0  0  0  0  0
    0.4895   -5.3743    0.0000 O   0  0  0  0  0  0  0  0  0  0  0  0
    1.5000   -2.5981    0.0000 O   0  0  0  0  0  0  0  0  0  0  0  0
    0.7500   -1.2990    0.0000 C   0  0  0  0  0  0  0  0  0  0  0  0
    1.5000    0.0000    0.0000 C   0  0  0  0  0  0  0  0  0  0  0  0
    0.7500    1.2990    0.0000 C   0  0  0  0  0  0  0  0  0  0  0  0
   -0.7500    1.2990    0.0000 C   0  0  0  0  0  0  0  0  0  0  0  0
   -1.5000    0.0000    0.0000 C   0  0  0  0  0  0  0  0  0  0  0  0
   -0.7500   -1.2990    0.0000 C   0  0  0  0  0  0  0  0  0  0  0  0
   -1.5000   -2.5981    0.0000 C   0  0  0  0  0  0  0  0  0  0  0  0
   -3.0000   -2.5981    0.0000 C   0  0  0  0  0  0  0  0  0  0  0  0
   -3.7500   -3.8971    0.0000 C   0  0  0  0  0  0  0  0  0  0  0  0
   -3.0000   -5.1962    0.0000 C   0  0  0  0  0  0  0  0  0  0  0  0
   -1.5000   -5.1962    0.0000 C   0  0  0  0  0  0  0  0  0  0  0  0
   -0.7500   -3.8971    0.0000 C   0  0  0  0  0  0  0  0  0  0  0  0
    1.2709   -6.8515    0.0000 C   0  0  0  0  0  0  0  0  0  0  0  0
    1.5314   -8.3287    0.0000 C   0  0  0  0  0  0  0  0  0  0  0  0
    4.6110  -10.8320    0.0000 P   0  0  0  0  0  0  0  0  0  0  0  0
    3.8610  -12.1311    0.0000 O   0  0  0  0  0  0  0  0  0  0  0  0
    4.8714   -9.3548    0.0000 O   0  0  0  0  0  0  0  0  0  0  0  0
    6.2810   -8.8418    0.0000 C   0  0  0  0  0  0  0  0  0  0  0  0
    6.5415   -7.3646    0.0000 C   0  0  0  0  0  0  0  0  0  0  0  0
    7.9510   -6.8515    0.0000 C   0  0  0  0  0  0  0  0  0  0  0  0
    9.1001   -7.8157    0.0000 C   0  0  0  0  0  0  0  0  0  0  0  0
    8.8396   -9.2929    0.0000 C   0  0  0  0  0  0  0  0  0  0  0  0
    7.4300   -9.8060    0.0000 C   0  0  0  0  0  0  0  0  0  0  0  0
    7.1696  -11.2832    0.0000 C   0  0  0  0  0  0  0  0  0  0  0  0
    8.3186  -12.2474    0.0000 C   0  0  0  0  0  0  0  0  0  0  0  0
    8.0582  -13.7246    0.0000 C   0  0  0  0  0  0  0  0  0  0  0  0
    6.6486  -14.2376    0.0000 C   0  0  0  0  0  0  0  0  0  0  0  0
    5.4996  -13.2734    0.0000 C   0  0  0  0  0  0  0  0  0  0  0  0
    5.7600  -11.7962    0.0000 C   0  0  0  0  0  0  0  0  0  0  0  0
    1.1638  -13.7246    0.0000 C   0  0  0  0  0  0  0  0  0  0  0  0
   -2.2834  -16.6171    0.0000 C   0  0  0  0  0  0  0  0  0  0  0  0
   -3.6930  -16.1041    0.0000 C   0  0  0  0  0  0  0  0  0  0  0  0
   -4.8420  -17.0683    0.0000 C   0  0  0  0  0  0  0  0  0  0  0  0
   -5.9911  -18.0324    0.0000 N   0  0  0  0  0  0  0  0  0  0  0  0
  1  2  3  0
  2  3  1  0
  3  4  2  0
  4  5  1  0
  5  6  2  0
  6  7  1  0
  7  8  1  0
  8  9  2  0
  9 10  1  0
 10 11  2  0
 11 12  1  0
 12 13  1  0
 13 14  1  0
 14 15  1  0
 15 16  2  0
 16 17  1  0
 17 18  2  0
 18 19  1  0
 19 20  1  0
 20 21  1  0
 21 22  2  0
 22 23  1  0
 23 24  2  0
 24 25  1  0
 25 26  1  0
 26 27  1  0
 27 28  2  0
 28 29  1  0
 29 30  1  0
 29 31  2  0
 31 32  1  0
 32 33  3  0
 31 34  1  0
 34 35  1  0
 35 36  3  0
 34 37  2  0
 25 38  2  0
 19 39  1  0
 39 40  2  0
 39 41  1  0
 41 42  1  0
 42 43  2  0
 43 44  1  0
 44 45  2  0
 45 46  1  0
 46 47  2  0
 47 48  1  0
 48 49  2  0
 49 50  1  0
 50 51  2  0
 51 52  1  0
 52 53  2  0
 18 54  1  0
 54 55  2  0
 14 56  1  0
 56 57  2  0
 56 58  1  0
 58 59  1  0
 59 60  2  0
 60 61  1  0
 61 62  2  0
 62 63  1  0
 63 64  2  0
 64 65  1  0
 65 66  2  0
 66 67  1  0
 67 68  2  0
 68 69  1  0
 69 70  2  0
 12 71  2  0
  6 72  1  0
 72 73  2  0
 73 74  1  0
 74 75  3  0
 73  3  1  0
 71  8  1  0
 55 15  1  0
 70 56  1  0
 38 21  1  0
 53 39  1  0
 64 59  1  0
 70 65  1  0
 37 27  1  0
 47 42  1  0
 53 48  1  0
M  END
>  <Candidate_ID>  (44) 
CAND_R2_044

>  <Candidate_Name>  (44) 
PBD-amino

>  <Parent_Seed_ID>  (44) 
TRAIN_020

>  <Parent_Name>  (44) 
PBD

>  <Transformation_Code>  (44) 
amino

>  <Design_Family>  (44) 
P-N

>  <Preparation_Type>  (44) 
Co-curing

>  <Synthesis_Level>  (44) 
B

>  <Parent_Tanimoto_r3>  (44) 
0.83

>  <Max_Train_Tanimoto_r3>  (44) 
0.83

>  <Risk_Flags>  (44) 
none

$$$$
CAND_R2_045 | PBD-hydroxy
     RDKit          2D

 75 85  0  0  0  0  0  0  0  0999 V2000
   -6.7725  -13.6008    0.0000 N   0  0  0  0  0  0  0  0  0  0  0  0
   -5.3630  -14.1138    0.0000 C   0  0  0  0  0  0  0  0  0  0  0  0
   -3.9534  -14.6269    0.0000 C   0  0  0  0  0  0  0  0  0  0  0  0
   -2.8044  -13.6627    0.0000 C   0  0  0  0  0  0  0  0  0  0  0  0
   -1.3948  -14.1757    0.0000 C   0  0  0  0  0  0  0  0  0  0  0  0
   -1.1344  -15.6529    0.0000 C   0  0  0  0  0  0  0  0  0  0  0  0
    0.2752  -16.1660    0.0000 O   0  0  0  0  0  0  0  0  0  0  0  0
    1.4242  -15.2018    0.0000 C   0  0  0  0  0  0  0  0  0  0  0  0
    2.8338  -15.7148    0.0000 C   0  0  0  0  0  0  0  0  0  0  0  0
    3.9828  -14.7506    0.0000 C   0  0  0  0  0  0  0  0  0  0  0  0
    3.7224  -13.2734    0.0000 C   0  0  0  0  0  0  0  0  0  0  0  0
    2.3128  -12.7604    0.0000 C   0  0  0  0  0  0  0  0  0  0  0  0
    2.0524  -11.2832    0.0000 N   0  0  0  0  0  0  0  0  0  0  0  0
    3.2014  -10.3190    0.0000 C   0  0  0  0  0  0  0  0  0  0  0  0
    2.9410   -8.8418    0.0000 C   0  0  0  0  0  0  0  0  0  0  0  0
    4.0900   -7.8776    0.0000 C   0  0  0  0  0  0  0  0  0  0  0  0
    3.8296   -6.4004    0.0000 C   0  0  0  0  0  0  0  0  0  0  0  0
    2.4200   -5.8874    0.0000 C   0  0  0  0  0  0  0  0  0  0  0  0
    2.1595   -4.4101    0.0000 C   0  0  0  0  0  0  0  0  0  0  0  0
    3.3086   -3.4460    0.0000 N   0  0  0  0  0  0  0  0  0  0  0  0
    4.7181   -3.9590    0.0000 C   0  0  0  0  0  0  0  0  0  0  0  0
    4.9786   -5.4362    0.0000 C   0  0  0  0  0  0  0  0  0  0  0  0
    6.3882   -5.9492    0.0000 C   0  0  0  0  0  0  0  0  0  0  0  0
    7.5372   -4.9851    0.0000 C   0  0  0  0  0  0  0  0  0  0  0  0
    7.2768   -3.5078    0.0000 C   0  0  0  0  0  0  0  0  0  0  0  0
    8.4258   -2.5437    0.0000 O   0  0  0  0  0  0  0  0  0  0  0  0
    9.8354   -3.0567    0.0000 C   0  0  0  0  0  0  0  0  0  0  0  0
   10.0958   -4.5339    0.0000 C   0  0  0  0  0  0  0  0  0  0  0  0
   11.5054   -5.0469    0.0000 C   0  0  0  0  0  0  0  0  0  0  0  0
   11.7658   -6.5241    0.0000 O   0  0  0  0  0  0  0  0  0  0  0  0
   12.6544   -4.0828    0.0000 C   0  0  0  0  0  0  0  0  0  0  0  0
   14.0640   -4.5958    0.0000 C   0  0  0  0  0  0  0  0  0  0  0  0
   15.4735   -5.1088    0.0000 N   0  0  0  0  0  0  0  0  0  0  0  0
   12.3940   -2.6055    0.0000 C   0  0  0  0  0  0  0  0  0  0  0  0
   13.5430   -1.6414    0.0000 C   0  0  0  0  0  0  0  0  0  0  0  0
   14.6921   -0.6772    0.0000 N   0  0  0  0  0  0  0  0  0  0  0  0
   10.9844   -2.0925    0.0000 C   0  0  0  0  0  0  0  0  0  0  0  0
    5.8672   -2.9948    0.0000 C   0  0  0  0  0  0  0  0  0  0  0  0
    0.7500   -3.8971    0.0000 P   0  0  0  0  0  0  0  0  0  0  0  0
    0.4895   -5.3743    0.0000 O   0  0  0  0  0  0  0  0  0  0  0  0
    1.5000   -2.5981    0.0000 O   0  0  0  0  0  0  0  0  0  0  0  0
    0.7500   -1.2990    0.0000 C   0  0  0  0  0  0  0  0  0  0  0  0
    1.5000    0.0000    0.0000 C   0  0  0  0  0  0  0  0  0  0  0  0
    0.7500    1.2990    0.0000 C   0  0  0  0  0  0  0  0  0  0  0  0
   -0.7500    1.2990    0.0000 C   0  0  0  0  0  0  0  0  0  0  0  0
   -1.5000    0.0000    0.0000 C   0  0  0  0  0  0  0  0  0  0  0  0
   -0.7500   -1.2990    0.0000 C   0  0  0  0  0  0  0  0  0  0  0  0
   -1.5000   -2.5981    0.0000 C   0  0  0  0  0  0  0  0  0  0  0  0
   -3.0000   -2.5981    0.0000 C   0  0  0  0  0  0  0  0  0  0  0  0
   -3.7500   -3.8971    0.0000 C   0  0  0  0  0  0  0  0  0  0  0  0
   -3.0000   -5.1962    0.0000 C   0  0  0  0  0  0  0  0  0  0  0  0
   -1.5000   -5.1962    0.0000 C   0  0  0  0  0  0  0  0  0  0  0  0
   -0.7500   -3.8971    0.0000 C   0  0  0  0  0  0  0  0  0  0  0  0
    1.2709   -6.8515    0.0000 C   0  0  0  0  0  0  0  0  0  0  0  0
    1.5314   -8.3287    0.0000 C   0  0  0  0  0  0  0  0  0  0  0  0
    4.6110  -10.8320    0.0000 P   0  0  0  0  0  0  0  0  0  0  0  0
    3.8610  -12.1311    0.0000 O   0  0  0  0  0  0  0  0  0  0  0  0
    4.8714   -9.3548    0.0000 O   0  0  0  0  0  0  0  0  0  0  0  0
    6.2810   -8.8418    0.0000 C   0  0  0  0  0  0  0  0  0  0  0  0
    6.5415   -7.3646    0.0000 C   0  0  0  0  0  0  0  0  0  0  0  0
    7.9510   -6.8515    0.0000 C   0  0  0  0  0  0  0  0  0  0  0  0
    9.1001   -7.8157    0.0000 C   0  0  0  0  0  0  0  0  0  0  0  0
    8.8396   -9.2929    0.0000 C   0  0  0  0  0  0  0  0  0  0  0  0
    7.4300   -9.8060    0.0000 C   0  0  0  0  0  0  0  0  0  0  0  0
    7.1696  -11.2832    0.0000 C   0  0  0  0  0  0  0  0  0  0  0  0
    8.3186  -12.2474    0.0000 C   0  0  0  0  0  0  0  0  0  0  0  0
    8.0582  -13.7246    0.0000 C   0  0  0  0  0  0  0  0  0  0  0  0
    6.6486  -14.2376    0.0000 C   0  0  0  0  0  0  0  0  0  0  0  0
    5.4996  -13.2734    0.0000 C   0  0  0  0  0  0  0  0  0  0  0  0
    5.7600  -11.7962    0.0000 C   0  0  0  0  0  0  0  0  0  0  0  0
    1.1638  -13.7246    0.0000 C   0  0  0  0  0  0  0  0  0  0  0  0
   -2.2834  -16.6171    0.0000 C   0  0  0  0  0  0  0  0  0  0  0  0
   -3.6930  -16.1041    0.0000 C   0  0  0  0  0  0  0  0  0  0  0  0
   -4.8420  -17.0683    0.0000 C   0  0  0  0  0  0  0  0  0  0  0  0
   -5.9911  -18.0324    0.0000 N   0  0  0  0  0  0  0  0  0  0  0  0
  1  2  3  0
  2  3  1  0
  3  4  2  0
  4  5  1  0
  5  6  2  0
  6  7  1  0
  7  8  1  0
  8  9  2  0
  9 10  1  0
 10 11  2  0
 11 12  1  0
 12 13  1  0
 13 14  1  0
 14 15  1  0
 15 16  2  0
 16 17  1  0
 17 18  2  0
 18 19  1  0
 19 20  1  0
 20 21  1  0
 21 22  2  0
 22 23  1  0
 23 24  2  0
 24 25  1  0
 25 26  1  0
 26 27  1  0
 27 28  2  0
 28 29  1  0
 29 30  1  0
 29 31  2  0
 31 32  1  0
 32 33  3  0
 31 34  1  0
 34 35  1  0
 35 36  3  0
 34 37  2  0
 25 38  2  0
 19 39  1  0
 39 40  2  0
 39 41  1  0
 41 42  1  0
 42 43  2  0
 43 44  1  0
 44 45  2  0
 45 46  1  0
 46 47  2  0
 47 48  1  0
 48 49  2  0
 49 50  1  0
 50 51  2  0
 51 52  1  0
 52 53  2  0
 18 54  1  0
 54 55  2  0
 14 56  1  0
 56 57  2  0
 56 58  1  0
 58 59  1  0
 59 60  2  0
 60 61  1  0
 61 62  2  0
 62 63  1  0
 63 64  2  0
 64 65  1  0
 65 66  2  0
 66 67  1  0
 67 68  2  0
 68 69  1  0
 69 70  2  0
 12 71  2  0
  6 72  1  0
 72 73  2  0
 73 74  1  0
 74 75  3  0
 73  3  1  0
 71  8  1  0
 55 15  1  0
 70 56  1  0
 38 21  1  0
 53 39  1  0
 64 59  1  0
 70 65  1  0
 37 27  1  0
 47 42  1  0
 53 48  1  0
M  END
>  <Candidate_ID>  (45) 
CAND_R2_045

>  <Candidate_Name>  (45) 
PBD-hydroxy

>  <Parent_Seed_ID>  (45) 
TRAIN_020

>  <Parent_Name>  (45) 
PBD

>  <Transformation_Code>  (45) 
hydroxy

>  <Design_Family>  (45) 
P-N

>  <Preparation_Type>  (45) 
Additive

>  <Synthesis_Level>  (45) 
B

>  <Parent_Tanimoto_r3>  (45) 
0.8383838383838383

>  <Max_Train_Tanimoto_r3>  (45) 
0.8383838383838383

>  <Risk_Flags>  (45) 
none

$$$$
CAND_R2_046 | PBD-hydroxymethyl
     RDKit          2D

 76 86  0  0  0  0  0  0  0  0999 V2000
   -6.7725  -13.6008    0.0000 N   0  0  0  0  0  0  0  0  0  0  0  0
   -5.3630  -14.1138    0.0000 C   0  0  0  0  0  0  0  0  0  0  0  0
   -3.9534  -14.6269    0.0000 C   0  0  0  0  0  0  0  0  0  0  0  0
   -2.8044  -13.6627    0.0000 C   0  0  0  0  0  0  0  0  0  0  0  0
   -1.3948  -14.1757    0.0000 C   0  0  0  0  0  0  0  0  0  0  0  0
   -1.1344  -15.6529    0.0000 C   0  0  0  0  0  0  0  0  0  0  0  0
    0.2752  -16.1660    0.0000 O   0  0  0  0  0  0  0  0  0  0  0  0
    1.4242  -15.2018    0.0000 C   0  0  0  0  0  0  0  0  0  0  0  0
    2.8338  -15.7148    0.0000 C   0  0  0  0  0  0  0  0  0  0  0  0
    3.9828  -14.7506    0.0000 C   0  0  0  0  0  0  0  0  0  0  0  0
    3.7224  -13.2734    0.0000 C   0  0  0  0  0  0  0  0  0  0  0  0
    2.3128  -12.7604    0.0000 C   0  0  0  0  0  0  0  0  0  0  0  0
    2.0524  -11.2832    0.0000 N   0  0  0  0  0  0  0  0  0  0  0  0
    3.2014  -10.3190    0.0000 C   0  0  0  0  0  0  0  0  0  0  0  0
    2.9410   -8.8418    0.0000 C   0  0  0  0  0  0  0  0  0  0  0  0
    4.0900   -7.8776    0.0000 C   0  0  0  0  0  0  0  0  0  0  0  0
    3.8296   -6.4004    0.0000 C   0  0  0  0  0  0  0  0  0  0  0  0
    2.4200   -5.8874    0.0000 C   0  0  0  0  0  0  0  0  0  0  0  0
    2.1595   -4.4101    0.0000 C   0  0  0  0  0  0  0  0  0  0  0  0
    3.3086   -3.4460    0.0000 N   0  0  0  0  0  0  0  0  0  0  0  0
    4.7181   -3.9590    0.0000 C   0  0  0  0  0  0  0  0  0  0  0  0
    4.9786   -5.4362    0.0000 C   0  0  0  0  0  0  0  0  0  0  0  0
    6.3882   -5.9492    0.0000 C   0  0  0  0  0  0  0  0  0  0  0  0
    7.5372   -4.9851    0.0000 C   0  0  0  0  0  0  0  0  0  0  0  0
    7.2768   -3.5078    0.0000 C   0  0  0  0  0  0  0  0  0  0  0  0
    8.4258   -2.5437    0.0000 O   0  0  0  0  0  0  0  0  0  0  0  0
    9.8354   -3.0567    0.0000 C   0  0  0  0  0  0  0  0  0  0  0  0
   10.0958   -4.5339    0.0000 C   0  0  0  0  0  0  0  0  0  0  0  0
   11.5054   -5.0469    0.0000 C   0  0  0  0  0  0  0  0  0  0  0  0
   11.7658   -6.5241    0.0000 C   0  0  0  0  0  0  0  0  0  0  0  0
   12.0263   -8.0014    0.0000 N   0  0  0  0  0  0  0  0  0  0  0  0
   12.6544   -4.0828    0.0000 C   0  0  0  0  0  0  0  0  0  0  0  0
   14.0640   -4.5958    0.0000 C   0  0  0  0  0  0  0  0  0  0  0  0
   15.4735   -5.1088    0.0000 N   0  0  0  0  0  0  0  0  0  0  0  0
   12.3940   -2.6055    0.0000 C   0  0  0  0  0  0  0  0  0  0  0  0
   13.5430   -1.6414    0.0000 C   0  0  0  0  0  0  0  0  0  0  0  0
   13.2826   -0.1641    0.0000 O   0  0  0  0  0  0  0  0  0  0  0  0
   10.9844   -2.0925    0.0000 C   0  0  0  0  0  0  0  0  0  0  0  0
    5.8672   -2.9948    0.0000 C   0  0  0  0  0  0  0  0  0  0  0  0
    0.7500   -3.8971    0.0000 P   0  0  0  0  0  0  0  0  0  0  0  0
    0.4895   -5.3743    0.0000 O   0  0  0  0  0  0  0  0  0  0  0  0
    1.5000   -2.5981    0.0000 O   0  0  0  0  0  0  0  0  0  0  0  0
    0.7500   -1.2990    0.0000 C   0  0  0  0  0  0  0  0  0  0  0  0
    1.5000    0.0000    0.0000 C   0  0  0  0  0  0  0  0  0  0  0  0
    0.7500    1.2990    0.0000 C   0  0  0  0  0  0  0  0  0  0  0  0
   -0.7500    1.2990    0.0000 C   0  0  0  0  0  0  0  0  0  0  0  0
   -1.5000    0.0000    0.0000 C   0  0  0  0  0  0  0  0  0  0  0  0
   -0.7500   -1.2990    0.0000 C   0  0  0  0  0  0  0  0  0  0  0  0
   -1.5000   -2.5981    0.0000 C   0  0  0  0  0  0  0  0  0  0  0  0
   -3.0000   -2.5981    0.0000 C   0  0  0  0  0  0  0  0  0  0  0  0
   -3.7500   -3.8971    0.0000 C   0  0  0  0  0  0  0  0  0  0  0  0
   -3.0000   -5.1962    0.0000 C   0  0  0  0  0  0  0  0  0  0  0  0
   -1.5000   -5.1962    0.0000 C   0  0  0  0  0  0  0  0  0  0  0  0
   -0.7500   -3.8971    0.0000 C   0  0  0  0  0  0  0  0  0  0  0  0
    1.2709   -6.8515    0.0000 C   0  0  0  0  0  0  0  0  0  0  0  0
    1.5314   -8.3287    0.0000 C   0  0  0  0  0  0  0  0  0  0  0  0
    4.6110  -10.8320    0.0000 P   0  0  0  0  0  0  0  0  0  0  0  0
    3.8610  -12.1311    0.0000 O   0  0  0  0  0  0  0  0  0  0  0  0
    4.8714   -9.3548    0.0000 O   0  0  0  0  0  0  0  0  0  0  0  0
    6.2810   -8.8418    0.0000 C   0  0  0  0  0  0  0  0  0  0  0  0
    6.5415   -7.3646    0.0000 C   0  0  0  0  0  0  0  0  0  0  0  0
    7.9510   -6.8515    0.0000 C   0  0  0  0  0  0  0  0  0  0  0  0
    9.1001   -7.8157    0.0000 C   0  0  0  0  0  0  0  0  0  0  0  0
    8.8396   -9.2929    0.0000 C   0  0  0  0  0  0  0  0  0  0  0  0
    7.4300   -9.8060    0.0000 C   0  0  0  0  0  0  0  0  0  0  0  0
    7.1696  -11.2832    0.0000 C   0  0  0  0  0  0  0  0  0  0  0  0
    8.3186  -12.2474    0.0000 C   0  0  0  0  0  0  0  0  0  0  0  0
    8.0582  -13.7246    0.0000 C   0  0  0  0  0  0  0  0  0  0  0  0
    6.6486  -14.2376    0.0000 C   0  0  0  0  0  0  0  0  0  0  0  0
    5.4996  -13.2734    0.0000 C   0  0  0  0  0  0  0  0  0  0  0  0
    5.7600  -11.7962    0.0000 C   0  0  0  0  0  0  0  0  0  0  0  0
    1.1638  -13.7246    0.0000 C   0  0  0  0  0  0  0  0  0  0  0  0
   -2.2834  -16.6171    0.0000 C   0  0  0  0  0  0  0  0  0  0  0  0
   -3.6930  -16.1041    0.0000 C   0  0  0  0  0  0  0  0  0  0  0  0
   -4.8420  -17.0683    0.0000 C   0  0  0  0  0  0  0  0  0  0  0  0
   -5.9911  -18.0324    0.0000 N   0  0  0  0  0  0  0  0  0  0  0  0
  1  2  3  0
  2  3  1  0
  3  4  2  0
  4  5  1  0
  5  6  2  0
  6  7  1  0
  7  8  1  0
  8  9  2  0
  9 10  1  0
 10 11  2  0
 11 12  1  0
 12 13  1  0
 13 14  1  0
 14 15  1  0
 15 16  2  0
 16 17  1  0
 17 18  2  0
 18 19  1  0
 19 20  1  0
 20 21  1  0
 21 22  2  0
 22 23  1  0
 23 24  2  0
 24 25  1  0
 25 26  1  0
 26 27  1  0
 27 28  2  0
 28 29  1  0
 29 30  1  0
 30 31  3  0
 29 32  2  0
 32 33  1  0
 33 34  3  0
 32 35  1  0
 35 36  1  0
 36 37  1  0
 35 38  2  0
 25 39  2  0
 19 40  1  0
 40 41  2  0
 40 42  1  0
 42 43  1  0
 43 44  2  0
 44 45  1  0
 45 46  2  0
 46 47  1  0
 47 48  2  0
 48 49  1  0
 49 50  2  0
 50 51  1  0
 51 52  2  0
 52 53  1  0
 53 54  2  0
 18 55  1  0
 55 56  2  0
 14 57  1  0
 57 58  2  0
 57 59  1  0
 59 60  1  0
 60 61  2  0
 61 62  1  0
 62 63  2  0
 63 64  1  0
 64 65  2  0
 65 66  1  0
 66 67  2  0
 67 68  1  0
 68 69  2  0
 69 70  1  0
 70 71  2  0
 12 72  2  0
  6 73  1  0
 73 74  2  0
 74 75  1  0
 75 76  3  0
 74  3  1  0
 72  8  1  0
 56 15  1  0
 71 57  1  0
 39 21  1  0
 54 40  1  0
 65 60  1  0
 71 66  1  0
 38 27  1  0
 48 43  1  0
 54 49  1  0
M  END
>  <Candidate_ID>  (46) 
CAND_R2_046

>  <Candidate_Name>  (46) 
PBD-hydroxymethyl

>  <Parent_Seed_ID>  (46) 
TRAIN_020

>  <Parent_Name>  (46) 
PBD

>  <Transformation_Code>  (46) 
hydroxymethyl

>  <Design_Family>  (46) 
P-N

>  <Preparation_Type>  (46) 
Additive

>  <Synthesis_Level>  (46) 
B

>  <Parent_Tanimoto_r3>  (46) 
0.8137254901960784

>  <Max_Train_Tanimoto_r3>  (46) 
0.8137254901960784

>  <Risk_Flags>  (46) 
none

$$$$
CAND_R2_047 | PBD-carboxamide
     RDKit          2D

 77 87  0  0  0  0  0  0  0  0999 V2000
   -6.7725  -13.6008    0.0000 N   0  0  0  0  0  0  0  0  0  0  0  0
   -5.3630  -14.1138    0.0000 C   0  0  0  0  0  0  0  0  0  0  0  0
   -3.9534  -14.6269    0.0000 C   0  0  0  0  0  0  0  0  0  0  0  0
   -2.8044  -13.6627    0.0000 C   0  0  0  0  0  0  0  0  0  0  0  0
   -1.3948  -14.1757    0.0000 C   0  0  0  0  0  0  0  0  0  0  0  0
   -1.1344  -15.6529    0.0000 C   0  0  0  0  0  0  0  0  0  0  0  0
    0.2752  -16.1660    0.0000 O   0  0  0  0  0  0  0  0  0  0  0  0
    1.4242  -15.2018    0.0000 C   0  0  0  0  0  0  0  0  0  0  0  0
    2.8338  -15.7148    0.0000 C   0  0  0  0  0  0  0  0  0  0  0  0
    3.9828  -14.7506    0.0000 C   0  0  0  0  0  0  0  0  0  0  0  0
    3.7224  -13.2734    0.0000 C   0  0  0  0  0  0  0  0  0  0  0  0
    2.3128  -12.7604    0.0000 C   0  0  0  0  0  0  0  0  0  0  0  0
    2.0524  -11.2832    0.0000 N   0  0  0  0  0  0  0  0  0  0  0  0
    3.2014  -10.3190    0.0000 C   0  0  0  0  0  0  0  0  0  0  0  0
    2.9410   -8.8418    0.0000 C   0  0  0  0  0  0  0  0  0  0  0  0
    4.0900   -7.8776    0.0000 C   0  0  0  0  0  0  0  0  0  0  0  0
    3.8296   -6.4004    0.0000 C   0  0  0  0  0  0  0  0  0  0  0  0
    2.4200   -5.8874    0.0000 C   0  0  0  0  0  0  0  0  0  0  0  0
    2.1595   -4.4101    0.0000 C   0  0  0  0  0  0  0  0  0  0  0  0
    3.3086   -3.4460    0.0000 N   0  0  0  0  0  0  0  0  0  0  0  0
    4.7181   -3.9590    0.0000 C   0  0  0  0  0  0  0  0  0  0  0  0
    4.9786   -5.4362    0.0000 C   0  0  0  0  0  0  0  0  0  0  0  0
    6.3882   -5.9492    0.0000 C   0  0  0  0  0  0  0  0  0  0  0  0
    7.5372   -4.9851    0.0000 C   0  0  0  0  0  0  0  0  0  0  0  0
    7.2768   -3.5078    0.0000 C   0  0  0  0  0  0  0  0  0  0  0  0
    8.4258   -2.5437    0.0000 O   0  0  0  0  0  0  0  0  0  0  0  0
    9.8354   -3.0567    0.0000 C   0  0  0  0  0  0  0  0  0  0  0  0
   10.0958   -4.5339    0.0000 C   0  0  0  0  0  0  0  0  0  0  0  0
   11.5054   -5.0469    0.0000 C   0  0  0  0  0  0  0  0  0  0  0  0
   11.7658   -6.5241    0.0000 C   0  0  0  0  0  0  0  0  0  0  0  0
   12.0263   -8.0014    0.0000 N   0  0  0  0  0  0  0  0  0  0  0  0
   12.6544   -4.0828    0.0000 C   0  0  0  0  0  0  0  0  0  0  0  0
   14.0640   -4.5958    0.0000 C   0  0  0  0  0  0  0  0  0  0  0  0
   15.4735   -5.1088    0.0000 N   0  0  0  0  0  0  0  0  0  0  0  0
   12.3940   -2.6055    0.0000 C   0  0  0  0  0  0  0  0  0  0  0  0
   13.5430   -1.6414    0.0000 C   0  0  0  0  0  0  0  0  0  0  0  0
   13.2826   -0.1641    0.0000 N   0  0  0  0  0  0  0  0  0  0  0  0
   14.9526   -2.1544    0.0000 O   0  0  0  0  0  0  0  0  0  0  0  0
   10.9844   -2.0925    0.0000 C   0  0  0  0  0  0  0  0  0  0  0  0
    5.8672   -2.9948    0.0000 C   0  0  0  0  0  0  0  0  0  0  0  0
    0.7500   -3.8971    0.0000 P   0  0  0  0  0  0  0  0  0  0  0  0
    0.4895   -5.3743    0.0000 O   0  0  0  0  0  0  0  0  0  0  0  0
    1.5000   -2.5981    0.0000 O   0  0  0  0  0  0  0  0  0  0  0  0
    0.7500   -1.2990    0.0000 C   0  0  0  0  0  0  0  0  0  0  0  0
    1.5000    0.0000    0.0000 C   0  0  0  0  0  0  0  0  0  0  0  0
    0.7500    1.2990    0.0000 C   0  0  0  0  0  0  0  0  0  0  0  0
   -0.7500    1.2990    0.0000 C   0  0  0  0  0  0  0  0  0  0  0  0
   -1.5000    0.0000    0.0000 C   0  0  0  0  0  0  0  0  0  0  0  0
   -0.7500   -1.2990    0.0000 C   0  0  0  0  0  0  0  0  0  0  0  0
   -1.5000   -2.5981    0.0000 C   0  0  0  0  0  0  0  0  0  0  0  0
   -3.0000   -2.5981    0.0000 C   0  0  0  0  0  0  0  0  0  0  0  0
   -3.7500   -3.8971    0.0000 C   0  0  0  0  0  0  0  0  0  0  0  0
   -3.0000   -5.1962    0.0000 C   0  0  0  0  0  0  0  0  0  0  0  0
   -1.5000   -5.1962    0.0000 C   0  0  0  0  0  0  0  0  0  0  0  0
   -0.7500   -3.8971    0.0000 C   0  0  0  0  0  0  0  0  0  0  0  0
    1.2709   -6.8515    0.0000 C   0  0  0  0  0  0  0  0  0  0  0  0
    1.5314   -8.3287    0.0000 C   0  0  0  0  0  0  0  0  0  0  0  0
    4.6110  -10.8320    0.0000 P   0  0  0  0  0  0  0  0  0  0  0  0
    3.8610  -12.1311    0.0000 O   0  0  0  0  0  0  0  0  0  0  0  0
    4.8714   -9.3548    0.0000 O   0  0  0  0  0  0  0  0  0  0  0  0
    6.2810   -8.8418    0.0000 C   0  0  0  0  0  0  0  0  0  0  0  0
    6.5415   -7.3646    0.0000 C   0  0  0  0  0  0  0  0  0  0  0  0
    7.9510   -6.8515    0.0000 C   0  0  0  0  0  0  0  0  0  0  0  0
    9.1001   -7.8157    0.0000 C   0  0  0  0  0  0  0  0  0  0  0  0
    8.8396   -9.2929    0.0000 C   0  0  0  0  0  0  0  0  0  0  0  0
    7.4300   -9.8060    0.0000 C   0  0  0  0  0  0  0  0  0  0  0  0
    7.1696  -11.2832    0.0000 C   0  0  0  0  0  0  0  0  0  0  0  0
    8.3186  -12.2474    0.0000 C   0  0  0  0  0  0  0  0  0  0  0  0
    8.0582  -13.7246    0.0000 C   0  0  0  0  0  0  0  0  0  0  0  0
    6.6486  -14.2376    0.0000 C   0  0  0  0  0  0  0  0  0  0  0  0
    5.4996  -13.2734    0.0000 C   0  0  0  0  0  0  0  0  0  0  0  0
    5.7600  -11.7962    0.0000 C   0  0  0  0  0  0  0  0  0  0  0  0
    1.1638  -13.7246    0.0000 C   0  0  0  0  0  0  0  0  0  0  0  0
   -2.2834  -16.6171    0.0000 C   0  0  0  0  0  0  0  0  0  0  0  0
   -3.6930  -16.1041    0.0000 C   0  0  0  0  0  0  0  0  0  0  0  0
   -4.8420  -17.0683    0.0000 C   0  0  0  0  0  0  0  0  0  0  0  0
   -5.9911  -18.0324    0.0000 N   0  0  0  0  0  0  0  0  0  0  0  0
  1  2  3  0
  2  3  1  0
  3  4  2  0
  4  5  1  0
  5  6  2  0
  6  7  1  0
  7  8  1  0
  8  9  2  0
  9 10  1  0
 10 11  2  0
 11 12  1  0
 12 13  1  0
 13 14  1  0
 14 15  1  0
 15 16  2  0
 16 17  1  0
 17 18  2  0
 18 19  1  0
 19 20  1  0
 20 21  1  0
 21 22  2  0
 22 23  1  0
 23 24  2  0
 24 25  1  0
 25 26  1  0
 26 27  1  0
 27 28  2  0
 28 29  1  0
 29 30  1  0
 30 31  3  0
 29 32  2  0
 32 33  1  0
 33 34  3  0
 32 35  1  0
 35 36  1  0
 36 37  1  0
 36 38  2  0
 35 39  2  0
 25 40  2  0
 19 41  1  0
 41 42  2  0
 41 43  1  0
 43 44  1  0
 44 45  2  0
 45 46  1  0
 46 47  2  0
 47 48  1  0
 48 49  2  0
 49 50  1  0
 50 51  2  0
 51 52  1  0
 52 53  2  0
 53 54  1  0
 54 55  2  0
 18 56  1  0
 56 57  2  0
 14 58  1  0
 58 59  2  0
 58 60  1  0
 60 61  1  0
 61 62  2  0
 62 63  1  0
 63 64  2  0
 64 65  1  0
 65 66  2  0
 66 67  1  0
 67 68  2  0
 68 69  1  0
 69 70  2  0
 70 71  1  0
 71 72  2  0
 12 73  2  0
  6 74  1  0
 74 75  2  0
 75 76  1  0
 76 77  3  0
 75  3  1  0
 73  8  1  0
 57 15  1  0
 72 58  1  0
 40 21  1  0
 55 41  1  0
 66 61  1  0
 72 67  1  0
 39 27  1  0
 49 44  1  0
 55 50  1  0
M  END
>  <Candidate_ID>  (47) 
CAND_R2_047

>  <Candidate_Name>  (47) 
PBD-carboxamide

>  <Parent_Seed_ID>  (47) 
TRAIN_020

>  <Parent_Name>  (47) 
PBD

>  <Transformation_Code>  (47) 
carboxamide

>  <Design_Family>  (47) 
P-N

>  <Preparation_Type>  (47) 
Additive

>  <Synthesis_Level>  (47) 
B

>  <Parent_Tanimoto_r3>  (47) 
0.7980769230769231

>  <Max_Train_Tanimoto_r3>  (47) 
0.7980769230769231

>  <Risk_Flags>  (47) 
none

$$$$
CAND_R2_048 | PBD-boronic-acid
     RDKit          2D

 77 87  0  0  0  0  0  0  0  0999 V2000
   -6.7725  -13.6008    0.0000 N   0  0  0  0  0  0  0  0  0  0  0  0
   -5.3630  -14.1138    0.0000 C   0  0  0  0  0  0  0  0  0  0  0  0
   -3.9534  -14.6269    0.0000 C   0  0  0  0  0  0  0  0  0  0  0  0
   -2.8044  -13.6627    0.0000 C   0  0  0  0  0  0  0  0  0  0  0  0
   -1.3948  -14.1757    0.0000 C   0  0  0  0  0  0  0  0  0  0  0  0
   -1.1344  -15.6529    0.0000 C   0  0  0  0  0  0  0  0  0  0  0  0
    0.2752  -16.1660    0.0000 O   0  0  0  0  0  0  0  0  0  0  0  0
    1.4242  -15.2018    0.0000 C   0  0  0  0  0  0  0  0  0  0  0  0
    2.8338  -15.7148    0.0000 C   0  0  0  0  0  0  0  0  0  0  0  0
    3.9828  -14.7506    0.0000 C   0  0  0  0  0  0  0  0  0  0  0  0
    3.7224  -13.2734    0.0000 C   0  0  0  0  0  0  0  0  0  0  0  0
    2.3128  -12.7604    0.0000 C   0  0  0  0  0  0  0  0  0  0  0  0
    2.0524  -11.2832    0.0000 N   0  0  0  0  0  0  0  0  0  0  0  0
    3.2014  -10.3190    0.0000 C   0  0  0  0  0  0  0  0  0  0  0  0
    2.9410   -8.8418    0.0000 C   0  0  0  0  0  0  0  0  0  0  0  0
    4.0900   -7.8776    0.0000 C   0  0  0  0  0  0  0  0  0  0  0  0
    3.8296   -6.4004    0.0000 C   0  0  0  0  0  0  0  0  0  0  0  0
    2.4200   -5.8874    0.0000 C   0  0  0  0  0  0  0  0  0  0  0  0
    2.1595   -4.4101    0.0000 C   0  0  0  0  0  0  0  0  0  0  0  0
    3.3086   -3.4460    0.0000 N   0  0  0  0  0  0  0  0  0  0  0  0
    4.7181   -3.9590    0.0000 C   0  0  0  0  0  0  0  0  0  0  0  0
    4.9786   -5.4362    0.0000 C   0  0  0  0  0  0  0  0  0  0  0  0
    6.3882   -5.9492    0.0000 C   0  0  0  0  0  0  0  0  0  0  0  0
    7.5372   -4.9851    0.0000 C   0  0  0  0  0  0  0  0  0  0  0  0
    7.2768   -3.5078    0.0000 C   0  0  0  0  0  0  0  0  0  0  0  0
    8.4258   -2.5437    0.0000 O   0  0  0  0  0  0  0  0  0  0  0  0
    9.8354   -3.0567    0.0000 C   0  0  0  0  0  0  0  0  0  0  0  0
   10.0958   -4.5339    0.0000 C   0  0  0  0  0  0  0  0  0  0  0  0
   11.5054   -5.0469    0.0000 C   0  0  0  0  0  0  0  0  0  0  0  0
   11.7658   -6.5241    0.0000 C   0  0  0  0  0  0  0  0  0  0  0  0
   12.0263   -8.0014    0.0000 N   0  0  0  0  0  0  0  0  0  0  0  0
   12.6544   -4.0828    0.0000 C   0  0  0  0  0  0  0  0  0  0  0  0
   14.0640   -4.5958    0.0000 C   0  0  0  0  0  0  0  0  0  0  0  0
   15.4735   -5.1088    0.0000 N   0  0  0  0  0  0  0  0  0  0  0  0
   12.3940   -2.6055    0.0000 C   0  0  0  0  0  0  0  0  0  0  0  0
   13.5430   -1.6414    0.0000 B   0  0  0  0  0  0  0  0  0  0  0  0
   13.2826   -0.1641    0.0000 O   0  0  0  0  0  0  0  0  0  0  0  0
   14.9526   -2.1544    0.0000 O   0  0  0  0  0  0  0  0  0  0  0  0
   10.9844   -2.0925    0.0000 C   0  0  0  0  0  0  0  0  0  0  0  0
    5.8672   -2.9948    0.0000 C   0  0  0  0  0  0  0  0  0  0  0  0
    0.7500   -3.8971    0.0000 P   0  0  0  0  0  0  0  0  0  0  0  0
    0.4895   -5.3743    0.0000 O   0  0  0  0  0  0  0  0  0  0  0  0
    1.5000   -2.5981    0.0000 O   0  0  0  0  0  0  0  0  0  0  0  0
    0.7500   -1.2990    0.0000 C   0  0  0  0  0  0  0  0  0  0  0  0
    1.5000    0.0000    0.0000 C   0  0  0  0  0  0  0  0  0  0  0  0
    0.7500    1.2990    0.0000 C   0  0  0  0  0  0  0  0  0  0  0  0
   -0.7500    1.2990    0.0000 C   0  0  0  0  0  0  0  0  0  0  0  0
   -1.5000    0.0000    0.0000 C   0  0  0  0  0  0  0  0  0  0  0  0
   -0.7500   -1.2990    0.0000 C   0  0  0  0  0  0  0  0  0  0  0  0
   -1.5000   -2.5981    0.0000 C   0  0  0  0  0  0  0  0  0  0  0  0
   -3.0000   -2.5981    0.0000 C   0  0  0  0  0  0  0  0  0  0  0  0
   -3.7500   -3.8971    0.0000 C   0  0  0  0  0  0  0  0  0  0  0  0
   -3.0000   -5.1962    0.0000 C   0  0  0  0  0  0  0  0  0  0  0  0
   -1.5000   -5.1962    0.0000 C   0  0  0  0  0  0  0  0  0  0  0  0
   -0.7500   -3.8971    0.0000 C   0  0  0  0  0  0  0  0  0  0  0  0
    1.2709   -6.8515    0.0000 C   0  0  0  0  0  0  0  0  0  0  0  0
    1.5314   -8.3287    0.0000 C   0  0  0  0  0  0  0  0  0  0  0  0
    4.6110  -10.8320    0.0000 P   0  0  0  0  0  0  0  0  0  0  0  0
    3.8610  -12.1311    0.0000 O   0  0  0  0  0  0  0  0  0  0  0  0
    4.8714   -9.3548    0.0000 O   0  0  0  0  0  0  0  0  0  0  0  0
    6.2810   -8.8418    0.0000 C   0  0  0  0  0  0  0  0  0  0  0  0
    6.5415   -7.3646    0.0000 C   0  0  0  0  0  0  0  0  0  0  0  0
    7.9510   -6.8515    0.0000 C   0  0  0  0  0  0  0  0  0  0  0  0
    9.1001   -7.8157    0.0000 C   0  0  0  0  0  0  0  0  0  0  0  0
    8.8396   -9.2929    0.0000 C   0  0  0  0  0  0  0  0  0  0  0  0
    7.4300   -9.8060    0.0000 C   0  0  0  0  0  0  0  0  0  0  0  0
    7.1696  -11.2832    0.0000 C   0  0  0  0  0  0  0  0  0  0  0  0
    8.3186  -12.2474    0.0000 C   0  0  0  0  0  0  0  0  0  0  0  0
    8.0582  -13.7246    0.0000 C   0  0  0  0  0  0  0  0  0  0  0  0
    6.6486  -14.2376    0.0000 C   0  0  0  0  0  0  0  0  0  0  0  0
    5.4996  -13.2734    0.0000 C   0  0  0  0  0  0  0  0  0  0  0  0
    5.7600  -11.7962    0.0000 C   0  0  0  0  0  0  0  0  0  0  0  0
    1.1638  -13.7246    0.0000 C   0  0  0  0  0  0  0  0  0  0  0  0
   -2.2834  -16.6171    0.0000 C   0  0  0  0  0  0  0  0  0  0  0  0
   -3.6930  -16.1041    0.0000 C   0  0  0  0  0  0  0  0  0  0  0  0
   -4.8420  -17.0683    0.0000 C   0  0  0  0  0  0  0  0  0  0  0  0
   -5.9911  -18.0324    0.0000 N   0  0  0  0  0  0  0  0  0  0  0  0
  1  2  3  0
  2  3  1  0
  3  4  2  0
  4  5  1  0
  5  6  2  0
  6  7  1  0
  7  8  1  0
  8  9  2  0
  9 10  1  0
 10 11  2  0
 11 12  1  0
 12 13  1  0
 13 14  1  0
 14 15  1  0
 15 16  2  0
 16 17  1  0
 17 18  2  0
 18 19  1  0
 19 20  1  0
 20 21  1  0
 21 22  2  0
 22 23  1  0
 23 24  2  0
 24 25  1  0
 25 26  1  0
 26 27  1  0
 27 28  2  0
 28 29  1  0
 29 30  1  0
 30 31  3  0
 29 32  2  0
 32 33  1  0
 33 34  3  0
 32 35  1  0
 35 36  1  0
 36 37  1  0
 36 38  1  0
 35 39  2  0
 25 40  2  0
 19 41  1  0
 41 42  2  0
 41 43  1  0
 43 44  1  0
 44 45  2  0
 45 46  1  0
 46 47  2  0
 47 48  1  0
 48 49  2  0
 49 50  1  0
 50 51  2  0
 51 52  1  0
 52 53  2  0
 53 54  1  0
 54 55  2  0
 18 56  1  0
 56 57  2  0
 14 58  1  0
 58 59  2  0
 58 60  1  0
 60 61  1  0
 61 62  2  0
 62 63  1  0
 63 64  2  0
 64 65  1  0
 65 66  2  0
 66 67  1  0
 67 68  2  0
 68 69  1  0
 69 70  2  0
 70 71  1  0
 71 72  2  0
 12 73  2  0
  6 74  1  0
 74 75  2  0
 75 76  1  0
 76 77  3  0
 75  3  1  0
 73  8  1  0
 57 15  1  0
 72 58  1  0
 40 21  1  0
 55 41  1  0
 66 61  1  0
 72 67  1  0
 39 27  1  0
 49 44  1  0
 55 50  1  0
M  END
>  <Candidate_ID>  (48) 
CAND_R2_048

>  <Candidate_Name>  (48) 
PBD-boronic-acid

>  <Parent_Seed_ID>  (48) 
TRAIN_020

>  <Parent_Name>  (48) 
PBD

>  <Transformation_Code>  (48) 
boronic_acid

>  <Design_Family>  (48) 
P-N-B

>  <Preparation_Type>  (48) 
Additive

>  <Synthesis_Level>  (48) 
B

>  <Parent_Tanimoto_r3>  (48) 
0.8058252427184466

>  <Max_Train_Tanimoto_r3>  (48) 
0.8058252427184466

>  <Risk_Flags>  (48) 
none

$$$$
CAND_R2_049 | PBD-pinacol-boronate
     RDKit          2D

 83 94  0  0  0  0  0  0  0  0999 V2000
   -5.4240  -20.4509    0.0000 C   0  0  0  0  0  0  0  0  0  0  0  0
   -6.1282  -19.1265    0.0000 C   0  0  0  0  0  0  0  0  0  0  0  0
   -7.3717  -19.9653    0.0000 C   0  0  0  0  0  0  0  0  0  0  0  0
   -4.7374  -18.5646    0.0000 O   0  0  0  0  0  0  0  0  0  0  0  0
   -4.8420  -17.0683    0.0000 B   0  0  0  0  0  0  0  0  0  0  0  0
   -3.6930  -16.1041    0.0000 C   0  0  0  0  0  0  0  0  0  0  0  0
   -2.2834  -16.6171    0.0000 C   0  0  0  0  0  0  0  0  0  0  0  0
   -1.1344  -15.6529    0.0000 C   0  0  0  0  0  0  0  0  0  0  0  0
    0.2752  -16.1660    0.0000 O   0  0  0  0  0  0  0  0  0  0  0  0
    1.4242  -15.2018    0.0000 C   0  0  0  0  0  0  0  0  0  0  0  0
    2.8338  -15.7148    0.0000 C   0  0  0  0  0  0  0  0  0  0  0  0
    3.9828  -14.7506    0.0000 C   0  0  0  0  0  0  0  0  0  0  0  0
    3.7224  -13.2734    0.0000 C   0  0  0  0  0  0  0  0  0  0  0  0
    2.3128  -12.7604    0.0000 C   0  0  0  0  0  0  0  0  0  0  0  0
    2.0524  -11.2832    0.0000 N   0  0  0  0  0  0  0  0  0  0  0  0
    3.2014  -10.3190    0.0000 C   0  0  0  0  0  0  0  0  0  0  0  0
    2.9410   -8.8418    0.0000 C   0  0  0  0  0  0  0  0  0  0  0  0
    4.0900   -7.8776    0.0000 C   0  0  0  0  0  0  0  0  0  0  0  0
    3.8296   -6.4004    0.0000 C   0  0  0  0  0  0  0  0  0  0  0  0
    2.4200   -5.8874    0.0000 C   0  0  0  0  0  0  0  0  0  0  0  0
    2.1595   -4.4101    0.0000 C   0  0  0  0  0  0  0  0  0  0  0  0
    3.3086   -3.4460    0.0000 N   0  0  0  0  0  0  0  0  0  0  0  0
    4.7181   -3.9590    0.0000 C   0  0  0  0  0  0  0  0  0  0  0  0
    4.9786   -5.4362    0.0000 C   0  0  0  0  0  0  0  0  0  0  0  0
    6.3882   -5.9492    0.0000 C   0  0  0  0  0  0  0  0  0  0  0  0
    7.5372   -4.9851    0.0000 C   0  0  0  0  0  0  0  0  0  0  0  0
    7.2768   -3.5078    0.0000 C   0  0  0  0  0  0  0  0  0  0  0  0
    8.4258   -2.5437    0.0000 O   0  0  0  0  0  0  0  0  0  0  0  0
    9.8354   -3.0567    0.0000 C   0  0  0  0  0  0  0  0  0  0  0  0
   10.0958   -4.5339    0.0000 C   0  0  0  0  0  0  0  0  0  0  0  0
   11.5054   -5.0469    0.0000 C   0  0  0  0  0  0  0  0  0  0  0  0
   12.6544   -4.0828    0.0000 C   0  0  0  0  0  0  0  0  0  0  0  0
   14.0640   -4.5958    0.0000 C   0  0  0  0  0  0  0  0  0  0  0  0
   15.4735   -5.1088    0.0000 N   0  0  0  0  0  0  0  0  0  0  0  0
   12.3940   -2.6055    0.0000 C   0  0  0  0  0  0  0  0  0  0  0  0
   13.5430   -1.6414    0.0000 C   0  0  0  0  0  0  0  0  0  0  0  0
   14.6921   -0.6772    0.0000 N   0  0  0  0  0  0  0  0  0  0  0  0
   10.9844   -2.0925    0.0000 C   0  0  0  0  0  0  0  0  0  0  0  0
    5.8672   -2.9948    0.0000 C   0  0  0  0  0  0  0  0  0  0  0  0
    0.7500   -3.8971    0.0000 P   0  0  0  0  0  0  0  0  0  0  0  0
    0.4895   -5.3743    0.0000 O   0  0  0  0  0  0  0  0  0  0  0  0
    1.5000   -2.5981    0.0000 O   0  0  0  0  0  0  0  0  0  0  0  0
    0.7500   -1.2990    0.0000 C   0  0  0  0  0  0  0  0  0  0  0  0
    1.5000    0.0000    0.0000 C   0  0  0  0  0  0  0  0  0  0  0  0
    0.7500    1.2990    0.0000 C   0  0  0  0  0  0  0  0  0  0  0  0
   -0.7500    1.2990    0.0000 C   0  0  0  0  0  0  0  0  0  0  0  0
   -1.5000    0.0000    0.0000 C   0  0  0  0  0  0  0  0  0  0  0  0
   -0.7500   -1.2990    0.0000 C   0  0  0  0  0  0  0  0  0  0  0  0
   -1.5000   -2.5981    0.0000 C   0  0  0  0  0  0  0  0  0  0  0  0
   -3.0000   -2.5981    0.0000 C   0  0  0  0  0  0  0  0  0  0  0  0
   -3.7500   -3.8971    0.0000 C   0  0  0  0  0  0  0  0  0  0  0  0
   -3.0000   -5.1962    0.0000 C   0  0  0  0  0  0  0  0  0  0  0  0
   -1.5000   -5.1962    0.0000 C   0  0  0  0  0  0  0  0  0  0  0  0
   -0.7500   -3.8971    0.0000 C   0  0  0  0  0  0  0  0  0  0  0  0
    1.2709   -6.8515    0.0000 C   0  0  0  0  0  0  0  0  0  0  0  0
    1.5314   -8.3287    0.0000 C   0  0  0  0  0  0  0  0  0  0  0  0
    4.6110  -10.8320    0.0000 P   0  0  0  0  0  0  0  0  0  0  0  0
    3.8610  -12.1311    0.0000 O   0  0  0  0  0  0  0  0  0  0  0  0
    4.8714   -9.3548    0.0000 O   0  0  0  0  0  0  0  0  0  0  0  0
    6.2810   -8.8418    0.0000 C   0  0  0  0  0  0  0  0  0  0  0  0
    6.5415   -7.3646    0.0000 C   0  0  0  0  0  0  0  0  0  0  0  0
    7.9510   -6.8515    0.0000 C   0  0  0  0  0  0  0  0  0  0  0  0
    9.1001   -7.8157    0.0000 C   0  0  0  0  0  0  0  0  0  0  0  0
    8.8396   -9.2929    0.0000 C   0  0  0  0  0  0  0  0  0  0  0  0
    7.4300   -9.8060    0.0000 C   0  0  0  0  0  0  0  0  0  0  0  0
    7.1696  -11.2832    0.0000 C   0  0  0  0  0  0  0  0  0  0  0  0
    8.3186  -12.2474    0.0000 C   0  0  0  0  0  0  0  0  0  0  0  0
    8.0582  -13.7246    0.0000 C   0  0  0  0  0  0  0  0  0  0  0  0
    6.6486  -14.2376    0.0000 C   0  0  0  0  0  0  0  0  0  0  0  0
    5.4996  -13.2734    0.0000 C   0  0  0  0  0  0  0  0  0  0  0  0
    5.7600  -11.7962    0.0000 C   0  0  0  0  0  0  0  0  0  0  0  0
    1.1638  -13.7246    0.0000 C   0  0  0  0  0  0  0  0  0  0  0  0
   -1.3948  -14.1757    0.0000 C   0  0  0  0  0  0  0  0  0  0  0  0
   -2.8044  -13.6627    0.0000 C   0  0  0  0  0  0  0  0  0  0  0  0
   -3.0648  -12.1855    0.0000 C   0  0  0  0  0  0  0  0  0  0  0  0
   -3.3253  -10.7083    0.0000 N   0  0  0  0  0  0  0  0  0  0  0  0
   -3.9534  -14.6269    0.0000 C   0  0  0  0  0  0  0  0  0  0  0  0
   -5.3630  -14.1138    0.0000 C   0  0  0  0  0  0  0  0  0  0  0  0
   -6.7725  -13.6008    0.0000 N   0  0  0  0  0  0  0  0  0  0  0  0
   -6.2975  -16.7054    0.0000 O   0  0  0  0  0  0  0  0  0  0  0  0
   -7.0924  -17.9775    0.0000 C   0  0  0  0  0  0  0  0  0  0  0  0
   -8.1343  -19.0565    0.0000 C   0  0  0  0  0  0  0  0  0  0  0  0
   -8.2744  -17.0540    0.0000 C   0  0  0  0  0  0  0  0  0  0  0  0
  1  2  1  0
  2  3  1  0
  2  4  1  0
  4  5  1  0
  5  6  1  0
  6  7  2  0
  7  8  1  0
  8  9  1  0
  9 10  1  0
 10 11  2  0
 11 12  1  0
 12 13  2  0
 13 14  1  0
 14 15  1  0
 15 16  1  0
 16 17  1  0
 17 18  2  0
 18 19  1  0
 19 20  2  0
 20 21  1  0
 21 22  1  0
 22 23  1  0
 23 24  2  0
 24 25  1  0
 25 26  2  0
 26 27  1  0
 27 28  1  0
 28 29  1  0
 29 30  2  0
 30 31  1  0
 31 32  2  0
 32 33  1  0
 33 34  3  0
 32 35  1  0
 35 36  1  0
 36 37  3  0
 35 38  2  0
 27 39  2  0
 21 40  1  0
 40 41  2  0
 40 42  1  0
 42 43  1  0
 43 44  2  0
 44 45  1  0
 45 46  2  0
 46 47  1  0
 47 48  2  0
 48 49  1  0
 49 50  2  0
 50 51  1  0
 51 52  2  0
 52 53  1  0
 53 54  2  0
 20 55  1  0
 55 56  2  0
 16 57  1  0
 57 58  2  0
 57 59  1  0
 59 60  1  0
 60 61  2  0
 61 62  1  0
 62 63  2  0
 63 64  1  0
 64 65  2  0
 65 66  1  0
 66 67  2  0
 67 68  1  0
 68 69  2  0
 69 70  1  0
 70 71  2  0
 14 72  2  0
  8 73  2  0
 73 74  1  0
 74 75  1  0
 75 76  3  0
 74 77  2  0
 77 78  1  0
 78 79  3  0
  5 80  1  0
 80 81  1  0
 81 82  1  0
 81 83  1  0
 81  2  1  0
 77  6  1  0
 72 10  1  0
 56 17  1  0
 71 57  1  0
 39 23  1  0
 54 40  1  0
 65 60  1  0
 71 66  1  0
 38 29  1  0
 48 43  1  0
 54 49  1  0
M  END
>  <Candidate_ID>  (49) 
CAND_R2_049

>  <Candidate_Name>  (49) 
PBD-pinacol-boronate

>  <Parent_Seed_ID>  (49) 
TRAIN_020

>  <Parent_Name>  (49) 
PBD

>  <Transformation_Code>  (49) 
pinacol_boronate

>  <Design_Family>  (49) 
P-N-B

>  <Preparation_Type>  (49) 
Additive

>  <Synthesis_Level>  (49) 
B

>  <Parent_Tanimoto_r3>  (49) 
0.7477477477477478

>  <Max_Train_Tanimoto_r3>  (49) 
0.7477477477477478

>  <Risk_Flags>  (49) 
none

$$$$
CAND_R2_050 | PBD-trimethoxysilyl
     RDKit          2D

 81 91  0  0  0  0  0  0  0  0999 V2000
   -4.7349  -10.1952    0.0000 C   0  0  0  0  0  0  0  0  0  0  0  0
   -3.3253  -10.7083    0.0000 O   0  0  0  0  0  0  0  0  0  0  0  0
   -3.0648  -12.1855    0.0000 Si  0  0  0  0  0  4  0  0  0  0  0  0
   -1.5876  -11.9250    0.0000 O   0  0  0  0  0  0  0  0  0  0  0  0
   -1.0746  -10.5155    0.0000 C   0  0  0  0  0  0  0  0  0  0  0  0
   -4.5421  -12.4459    0.0000 O   0  0  0  0  0  0  0  0  0  0  0  0
   -5.5062  -11.2969    0.0000 C   0  0  0  0  0  0  0  0  0  0  0  0
   -2.8044  -13.6627    0.0000 C   0  0  0  0  0  0  0  0  0  0  0  0
   -1.3948  -14.1757    0.0000 C   0  0  0  0  0  0  0  0  0  0  0  0
   -1.1344  -15.6529    0.0000 C   0  0  0  0  0  0  0  0  0  0  0  0
    0.2752  -16.1660    0.0000 O   0  0  0  0  0  0  0  0  0  0  0  0
    1.4242  -15.2018    0.0000 C   0  0  0  0  0  0  0  0  0  0  0  0
    2.8338  -15.7148    0.0000 C   0  0  0  0  0  0  0  0  0  0  0  0
    3.9828  -14.7506    0.0000 C   0  0  0  0  0  0  0  0  0  0  0  0
    3.7224  -13.2734    0.0000 C   0  0  0  0  0  0  0  0  0  0  0  0
    2.3128  -12.7604    0.0000 C   0  0  0  0  0  0  0  0  0  0  0  0
    2.0524  -11.2832    0.0000 N   0  0  0  0  0  0  0  0  0  0  0  0
    3.2014  -10.3190    0.0000 C   0  0  0  0  0  0  0  0  0  0  0  0
    2.9410   -8.8418    0.0000 C   0  0  0  0  0  0  0  0  0  0  0  0
    4.0900   -7.8776    0.0000 C   0  0  0  0  0  0  0  0  0  0  0  0
    3.8296   -6.4004    0.0000 C   0  0  0  0  0  0  0  0  0  0  0  0
    2.4200   -5.8874    0.0000 C   0  0  0  0  0  0  0  0  0  0  0  0
    2.1595   -4.4101    0.0000 C   0  0  0  0  0  0  0  0  0  0  0  0
    3.3086   -3.4460    0.0000 N   0  0  0  0  0  0  0  0  0  0  0  0
    4.7181   -3.9590    0.0000 C   0  0  0  0  0  0  0  0  0  0  0  0
    4.9786   -5.4362    0.0000 C   0  0  0  0  0  0  0  0  0  0  0  0
    6.3882   -5.9492    0.0000 C   0  0  0  0  0  0  0  0  0  0  0  0
    7.5372   -4.9851    0.0000 C   0  0  0  0  0  0  0  0  0  0  0  0
    7.2768   -3.5078    0.0000 C   0  0  0  0  0  0  0  0  0  0  0  0
    8.4258   -2.5437    0.0000 O   0  0  0  0  0  0  0  0  0  0  0  0
    9.8354   -3.0567    0.0000 C   0  0  0  0  0  0  0  0  0  0  0  0
   10.0958   -4.5339    0.0000 C   0  0  0  0  0  0  0  0  0  0  0  0
   11.5054   -5.0469    0.0000 C   0  0  0  0  0  0  0  0  0  0  0  0
   12.6544   -4.0828    0.0000 C   0  0  0  0  0  0  0  0  0  0  0  0
   14.0640   -4.5958    0.0000 C   0  0  0  0  0  0  0  0  0  0  0  0
   15.4735   -5.1088    0.0000 N   0  0  0  0  0  0  0  0  0  0  0  0
   12.3940   -2.6055    0.0000 C   0  0  0  0  0  0  0  0  0  0  0  0
   13.5430   -1.6414    0.0000 C   0  0  0  0  0  0  0  0  0  0  0  0
   14.6921   -0.6772    0.0000 N   0  0  0  0  0  0  0  0  0  0  0  0
   10.9844   -2.0925    0.0000 C   0  0  0  0  0  0  0  0  0  0  0  0
    5.8672   -2.9948    0.0000 C   0  0  0  0  0  0  0  0  0  0  0  0
    0.7500   -3.8971    0.0000 P   0  0  0  0  0  0  0  0  0  0  0  0
    0.4895   -5.3743    0.0000 O   0  0  0  0  0  0  0  0  0  0  0  0
    1.5000   -2.5981    0.0000 O   0  0  0  0  0  0  0  0  0  0  0  0
    0.7500   -1.2990    0.0000 C   0  0  0  0  0  0  0  0  0  0  0  0
    1.5000    0.0000    0.0000 C   0  0  0  0  0  0  0  0  0  0  0  0
    0.7500    1.2990    0.0000 C   0  0  0  0  0  0  0  0  0  0  0  0
   -0.7500    1.2990    0.0000 C   0  0  0  0  0  0  0  0  0  0  0  0
   -1.5000    0.0000    0.0000 C   0  0  0  0  0  0  0  0  0  0  0  0
   -0.7500   -1.2990    0.0000 C   0  0  0  0  0  0  0  0  0  0  0  0
   -1.5000   -2.5981    0.0000 C   0  0  0  0  0  0  0  0  0  0  0  0
   -3.0000   -2.5981    0.0000 C   0  0  0  0  0  0  0  0  0  0  0  0
   -3.7500   -3.8971    0.0000 C   0  0  0  0  0  0  0  0  0  0  0  0
   -3.0000   -5.1962    0.0000 C   0  0  0  0  0  0  0  0  0  0  0  0
   -1.5000   -5.1962    0.0000 C   0  0  0  0  0  0  0  0  0  0  0  0
   -0.7500   -3.8971    0.0000 C   0  0  0  0  0  0  0  0  0  0  0  0
    1.2709   -6.8515    0.0000 C   0  0  0  0  0  0  0  0  0  0  0  0
    1.5314   -8.3287    0.0000 C   0  0  0  0  0  0  0  0  0  0  0  0
    4.6110  -10.8320    0.0000 P   0  0  0  0  0  0  0  0  0  0  0  0
    3.8610  -12.1311    0.0000 O   0  0  0  0  0  0  0  0  0  0  0  0
    4.8714   -9.3548    0.0000 O   0  0  0  0  0  0  0  0  0  0  0  0
    6.2810   -8.8418    0.0000 C   0  0  0  0  0  0  0  0  0  0  0  0
    6.5415   -7.3646    0.0000 C   0  0  0  0  0  0  0  0  0  0  0  0
    7.9510   -6.8515    0.0000 C   0  0  0  0  0  0  0  0  0  0  0  0
    9.1001   -7.8157    0.0000 C   0  0  0  0  0  0  0  0  0  0  0  0
    8.8396   -9.2929    0.0000 C   0  0  0  0  0  0  0  0  0  0  0  0
    7.4300   -9.8060    0.0000 C   0  0  0  0  0  0  0  0  0  0  0  0
    7.1696  -11.2832    0.0000 C   0  0  0  0  0  0  0  0  0  0  0  0
    8.3186  -12.2474    0.0000 C   0  0  0  0  0  0  0  0  0  0  0  0
    8.0582  -13.7246    0.0000 C   0  0  0  0  0  0  0  0  0  0  0  0
    6.6486  -14.2376    0.0000 C   0  0  0  0  0  0  0  0  0  0  0  0
    5.4996  -13.2734    0.0000 C   0  0  0  0  0  0  0  0  0  0  0  0
    5.7600  -11.7962    0.0000 C   0  0  0  0  0  0  0  0  0  0  0  0
    1.1638  -13.7246    0.0000 C   0  0  0  0  0  0  0  0  0  0  0  0
   -2.2834  -16.6171    0.0000 C   0  0  0  0  0  0  0  0  0  0  0  0
   -3.6930  -16.1041    0.0000 C   0  0  0  0  0  0  0  0  0  0  0  0
   -4.8420  -17.0683    0.0000 C   0  0  0  0  0  0  0  0  0  0  0  0
   -5.9911  -18.0324    0.0000 N   0  0  0  0  0  0  0  0  0  0  0  0
   -3.9534  -14.6269    0.0000 C   0  0  0  0  0  0  0  0  0  0  0  0
   -5.3630  -14.1138    0.0000 C   0  0  0  0  0  0  0  0  0  0  0  0
   -6.7725  -13.6008    0.0000 N   0  0  0  0  0  0  0  0  0  0  0  0
  1  2  1  0
  2  3  1  0
  3  4  1  0
  4  5  1  0
  3  6  1  0
  6  7  1  0
  3  8  1  0
  8  9  2  0
  9 10  1  0
 10 11  1  0
 11 12  1  0
 12 13  2  0
 13 14  1  0
 14 15  2  0
 15 16  1  0
 16 17  1  0
 17 18  1  0
 18 19  1  0
 19 20  2  0
 20 21  1  0
 21 22  2  0
 22 23  1  0
 23 24  1  0
 24 25  1  0
 25 26  2  0
 26 27  1  0
 27 28  2  0
 28 29  1  0
 29 30  1  0
 30 31  1  0
 31 32  2  0
 32 33  1  0
 33 34  2  0
 34 35  1  0
 35 36  3  0
 34 37  1  0
 37 38  1  0
 38 39  3  0
 37 40  2  0
 29 41  2  0
 23 42  1  0
 42 43  2  0
 42 44  1  0
 44 45  1  0
 45 46  2  0
 46 47  1  0
 47 48  2  0
 48 49  1  0
 49 50  2  0
 50 51  1  0
 51 52  2  0
 52 53  1  0
 53 54  2  0
 54 55  1  0
 55 56  2  0
 22 57  1  0
 57 58  2  0
 18 59  1  0
 59 60  2  0
 59 61  1  0
 61 62  1  0
 62 63  2  0
 63 64  1  0
 64 65  2  0
 65 66  1  0
 66 67  2  0
 67 68  1  0
 68 69  2  0
 69 70  1  0
 70 71  2  0
 71 72  1  0
 72 73  2  0
 16 74  2  0
 10 75  2  0
 75 76  1  0
 76 77  1  0
 77 78  3  0
 76 79  2  0
 79 80  1  0
 80 81  3  0
 79  8  1  0
 74 12  1  0
 58 19  1  0
 73 59  1  0
 41 25  1  0
 56 42  1  0
 67 62  1  0
 73 68  1  0
 40 31  1  0
 50 45  1  0
 56 51  1  0
M  END
>  <Candidate_ID>  (50) 
CAND_R2_050

>  <Candidate_Name>  (50) 
PBD-trimethoxysilyl

>  <Parent_Seed_ID>  (50) 
TRAIN_020

>  <Parent_Name>  (50) 
PBD

>  <Transformation_Code>  (50) 
trimethoxysilyl

>  <Design_Family>  (50) 
P-N-Si

>  <Preparation_Type>  (50) 
Additive + Secondary Crosslinking

>  <Synthesis_Level>  (50) 
B

>  <Parent_Tanimoto_r3>  (50) 
0.7830188679245284

>  <Max_Train_Tanimoto_r3>  (50) 
0.7830188679245284

>  <Risk_Flags>  (50) 
none

$$$$
CAND_R2_051 | PBD-triethoxysilyl
     RDKit          2D

 84 94  0  0  0  0  0  0  0  0999 V2000
   -4.9953   -8.7180    0.0000 C   0  0  0  0  0  0  0  0  0  0  0  0
   -4.7349  -10.1952    0.0000 C   0  0  0  0  0  0  0  0  0  0  0  0
   -3.3253  -10.7083    0.0000 O   0  0  0  0  0  0  0  0  0  0  0  0
   -3.0648  -12.1855    0.0000 Si  0  0  0  0  0  4  0  0  0  0  0  0
   -1.5876  -11.9250    0.0000 O   0  0  0  0  0  0  0  0  0  0  0  0
   -1.0746  -10.5155    0.0000 C   0  0  0  0  0  0  0  0  0  0  0  0
    0.4026  -10.2550    0.0000 C   0  0  0  0  0  0  0  0  0  0  0  0
   -4.5421  -12.4459    0.0000 O   0  0  0  0  0  0  0  0  0  0  0  0
   -5.5062  -11.2969    0.0000 C   0  0  0  0  0  0  0  0  0  0  0  0
   -6.9835  -11.5574    0.0000 C   0  0  0  0  0  0  0  0  0  0  0  0
   -2.8044  -13.6627    0.0000 C   0  0  0  0  0  0  0  0  0  0  0  0
   -1.3948  -14.1757    0.0000 C   0  0  0  0  0  0  0  0  0  0  0  0
   -1.1344  -15.6529    0.0000 C   0  0  0  0  0  0  0  0  0  0  0  0
    0.2752  -16.1660    0.0000 O   0  0  0  0  0  0  0  0  0  0  0  0
    1.4242  -15.2018    0.0000 C   0  0  0  0  0  0  0  0  0  0  0  0
    2.8338  -15.7148    0.0000 C   0  0  0  0  0  0  0  0  0  0  0  0
    3.9828  -14.7506    0.0000 C   0  0  0  0  0  0  0  0  0  0  0  0
    3.7224  -13.2734    0.0000 C   0  0  0  0  0  0  0  0  0  0  0  0
    2.3128  -12.7604    0.0000 C   0  0  0  0  0  0  0  0  0  0  0  0
    2.0524  -11.2832    0.0000 N   0  0  0  0  0  0  0  0  0  0  0  0
    3.2014  -10.3190    0.0000 C   0  0  0  0  0  0  0  0  0  0  0  0
    2.9410   -8.8418    0.0000 C   0  0  0  0  0  0  0  0  0  0  0  0
    4.0900   -7.8776    0.0000 C   0  0  0  0  0  0  0  0  0  0  0  0
    3.8296   -6.4004    0.0000 C   0  0  0  0  0  0  0  0  0  0  0  0
    2.4200   -5.8874    0.0000 C   0  0  0  0  0  0  0  0  0  0  0  0
    2.1595   -4.4101    0.0000 C   0  0  0  0  0  0  0  0  0  0  0  0
    3.3086   -3.4460    0.0000 N   0  0  0  0  0  0  0  0  0  0  0  0
    4.7181   -3.9590    0.0000 C   0  0  0  0  0  0  0  0  0  0  0  0
    4.9786   -5.4362    0.0000 C   0  0  0  0  0  0  0  0  0  0  0  0
    6.3882   -5.9492    0.0000 C   0  0  0  0  0  0  0  0  0  0  0  0
    7.5372   -4.9851    0.0000 C   0  0  0  0  0  0  0  0  0  0  0  0
    7.2768   -3.5078    0.0000 C   0  0  0  0  0  0  0  0  0  0  0  0
    8.4258   -2.5437    0.0000 O   0  0  0  0  0  0  0  0  0  0  0  0
    9.8354   -3.0567    0.0000 C   0  0  0  0  0  0  0  0  0  0  0  0
   10.0958   -4.5339    0.0000 C   0  0  0  0  0  0  0  0  0  0  0  0
   11.5054   -5.0469    0.0000 C   0  0  0  0  0  0  0  0  0  0  0  0
   12.6544   -4.0828    0.0000 C   0  0  0  0  0  0  0  0  0  0  0  0
   14.0640   -4.5958    0.0000 C   0  0  0  0  0  0  0  0  0  0  0  0
   15.4735   -5.1088    0.0000 N   0  0  0  0  0  0  0  0  0  0  0  0
   12.3940   -2.6055    0.0000 C   0  0  0  0  0  0  0  0  0  0  0  0
   13.5430   -1.6414    0.0000 C   0  0  0  0  0  0  0  0  0  0  0  0
   14.6921   -0.6772    0.0000 N   0  0  0  0  0  0  0  0  0  0  0  0
   10.9844   -2.0925    0.0000 C   0  0  0  0  0  0  0  0  0  0  0  0
    5.8672   -2.9948    0.0000 C   0  0  0  0  0  0  0  0  0  0  0  0
    0.7500   -3.8971    0.0000 P   0  0  0  0  0  0  0  0  0  0  0  0
    0.4895   -5.3743    0.0000 O   0  0  0  0  0  0  0  0  0  0  0  0
    1.5000   -2.5981    0.0000 O   0  0  0  0  0  0  0  0  0  0  0  0
    0.7500   -1.2990    0.0000 C   0  0  0  0  0  0  0  0  0  0  0  0
    1.5000    0.0000    0.0000 C   0  0  0  0  0  0  0  0  0  0  0  0
    0.7500    1.2990    0.0000 C   0  0  0  0  0  0  0  0  0  0  0  0
   -0.7500    1.2990    0.0000 C   0  0  0  0  0  0  0  0  0  0  0  0
   -1.5000    0.0000    0.0000 C   0  0  0  0  0  0  0  0  0  0  0  0
   -0.7500   -1.2990    0.0000 C   0  0  0  0  0  0  0  0  0  0  0  0
   -1.5000   -2.5981    0.0000 C   0  0  0  0  0  0  0  0  0  0  0  0
   -3.0000   -2.5981    0.0000 C   0  0  0  0  0  0  0  0  0  0  0  0
   -3.7500   -3.8971    0.0000 C   0  0  0  0  0  0  0  0  0  0  0  0
   -3.0000   -5.1962    0.0000 C   0  0  0  0  0  0  0  0  0  0  0  0
   -1.5000   -5.1962    0.0000 C   0  0  0  0  0  0  0  0  0  0  0  0
   -0.7500   -3.8971    0.0000 C   0  0  0  0  0  0  0  0  0  0  0  0
    1.2709   -6.8515    0.0000 C   0  0  0  0  0  0  0  0  0  0  0  0
    1.5314   -8.3287    0.0000 C   0  0  0  0  0  0  0  0  0  0  0  0
    4.6110  -10.8320    0.0000 P   0  0  0  0  0  0  0  0  0  0  0  0
    3.8610  -12.1311    0.0000 O   0  0  0  0  0  0  0  0  0  0  0  0
    4.8714   -9.3548    0.0000 O   0  0  0  0  0  0  0  0  0  0  0  0
    6.2810   -8.8418    0.0000 C   0  0  0  0  0  0  0  0  0  0  0  0
    6.5415   -7.3646    0.0000 C   0  0  0  0  0  0  0  0  0  0  0  0
    7.9510   -6.8515    0.0000 C   0  0  0  0  0  0  0  0  0  0  0  0
    9.1001   -7.8157    0.0000 C   0  0  0  0  0  0  0  0  0  0  0  0
    8.8396   -9.2929    0.0000 C   0  0  0  0  0  0  0  0  0  0  0  0
    7.4300   -9.8060    0.0000 C   0  0  0  0  0  0  0  0  0  0  0  0
    7.1696  -11.2832    0.0000 C   0  0  0  0  0  0  0  0  0  0  0  0
    8.3186  -12.2474    0.0000 C   0  0  0  0  0  0  0  0  0  0  0  0
    8.0582  -13.7246    0.0000 C   0  0  0  0  0  0  0  0  0  0  0  0
    6.6486  -14.2376    0.0000 C   0  0  0  0  0  0  0  0  0  0  0  0
    5.4996  -13.2734    0.0000 C   0  0  0  0  0  0  0  0  0  0  0  0
    5.7600  -11.7962    0.0000 C   0  0  0  0  0  0  0  0  0  0  0  0
    1.1638  -13.7246    0.0000 C   0  0  0  0  0  0  0  0  0  0  0  0
   -2.2834  -16.6171    0.0000 C   0  0  0  0  0  0  0  0  0  0  0  0
   -3.6930  -16.1041    0.0000 C   0  0  0  0  0  0  0  0  0  0  0  0
   -4.8420  -17.0683    0.0000 C   0  0  0  0  0  0  0  0  0  0  0  0
   -5.9911  -18.0324    0.0000 N   0  0  0  0  0  0  0  0  0  0  0  0
   -3.9534  -14.6269    0.0000 C   0  0  0  0  0  0  0  0  0  0  0  0
   -5.3630  -14.1138    0.0000 C   0  0  0  0  0  0  0  0  0  0  0  0
   -6.7725  -13.6008    0.0000 N   0  0  0  0  0  0  0  0  0  0  0  0
  1  2  1  0
  2  3  1  0
  3  4  1  0
  4  5  1  0
  5  6  1  0
  6  7  1  0
  4  8  1  0
  8  9  1  0
  9 10  1  0
  4 11  1  0
 11 12  2  0
 12 13  1  0
 13 14  1  0
 14 15  1  0
 15 16  2  0
 16 17  1  0
 17 18  2  0
 18 19  1  0
 19 20  1  0
 20 21  1  0
 21 22  1  0
 22 23  2  0
 23 24  1  0
 24 25  2  0
 25 26  1  0
 26 27  1  0
 27 28  1  0
 28 29  2  0
 29 30  1  0
 30 31  2  0
 31 32  1  0
 32 33  1  0
 33 34  1  0
 34 35  2  0
 35 36  1  0
 36 37  2  0
 37 38  1  0
 38 39  3  0
 37 40  1  0
 40 41  1  0
 41 42  3  0
 40 43  2  0
 32 44  2  0
 26 45  1  0
 45 46  2  0
 45 47  1  0
 47 48  1  0
 48 49  2  0
 49 50  1  0
 50 51  2  0
 51 52  1  0
 52 53  2  0
 53 54  1  0
 54 55  2  0
 55 56  1  0
 56 57  2  0
 57 58  1  0
 58 59  2  0
 25 60  1  0
 60 61  2  0
 21 62  1  0
 62 63  2  0
 62 64  1  0
 64 65  1  0
 65 66  2  0
 66 67  1  0
 67 68  2  0
 68 69  1  0
 69 70  2  0
 70 71  1  0
 71 72  2  0
 72 73  1  0
 73 74  2  0
 74 75  1  0
 75 76  2  0
 19 77  2  0
 13 78  2  0
 78 79  1  0
 79 80  1  0
 80 81  3  0
 79 82  2  0
 82 83  1  0
 83 84  3  0
 82 11  1  0
 77 15  1  0
 61 22  1  0
 76 62  1  0
 44 28  1  0
 59 45  1  0
 70 65  1  0
 76 71  1  0
 43 34  1  0
 53 48  1  0
 59 54  1  0
M  END
>  <Candidate_ID>  (51) 
CAND_R2_051

>  <Candidate_Name>  (51) 
PBD-triethoxysilyl

>  <Parent_Seed_ID>  (51) 
TRAIN_020

>  <Parent_Name>  (51) 
PBD

>  <Transformation_Code>  (51) 
triethoxysilyl

>  <Design_Family>  (51) 
P-N-Si

>  <Preparation_Type>  (51) 
Additive + Secondary Crosslinking

>  <Synthesis_Level>  (51) 
B

>  <Parent_Tanimoto_r3>  (51) 
0.7545454545454545

>  <Max_Train_Tanimoto_r3>  (51) 
0.7545454545454545

>  <Risk_Flags>  (51) 
none

$$$$
CAND_R2_052 | PBD-disiloxane
     RDKit          2D

 82 92  0  0  0  0  0  0  0  0999 V2000
   -4.2218   -8.7857    0.0000 C   0  0  0  0  0  0  0  0  0  0  0  0
   -4.7349  -10.1952    0.0000 Si  0  0  0  0  0  4  0  0  0  0  0  0
   -5.2479  -11.6048    0.0000 C   0  0  0  0  0  0  0  0  0  0  0  0
   -6.1444   -9.6822    0.0000 C   0  0  0  0  0  0  0  0  0  0  0  0
   -3.3253  -10.7083    0.0000 O   0  0  0  0  0  0  0  0  0  0  0  0
   -3.0648  -12.1855    0.0000 Si  0  0  0  0  0  4  0  0  0  0  0  0
   -4.5421  -12.4459    0.0000 C   0  0  0  0  0  0  0  0  0  0  0  0
   -1.5876  -11.9250    0.0000 C   0  0  0  0  0  0  0  0  0  0  0  0
   -2.8044  -13.6627    0.0000 C   0  0  0  0  0  0  0  0  0  0  0  0
   -1.3948  -14.1757    0.0000 C   0  0  0  0  0  0  0  0  0  0  0  0
   -1.1344  -15.6529    0.0000 C   0  0  0  0  0  0  0  0  0  0  0  0
    0.2752  -16.1660    0.0000 O   0  0  0  0  0  0  0  0  0  0  0  0
    1.4242  -15.2018    0.0000 C   0  0  0  0  0  0  0  0  0  0  0  0
    2.8338  -15.7148    0.0000 C   0  0  0  0  0  0  0  0  0  0  0  0
    3.9828  -14.7506    0.0000 C   0  0  0  0  0  0  0  0  0  0  0  0
    3.7224  -13.2734    0.0000 C   0  0  0  0  0  0  0  0  0  0  0  0
    2.3128  -12.7604    0.0000 C   0  0  0  0  0  0  0  0  0  0  0  0
    2.0524  -11.2832    0.0000 N   0  0  0  0  0  0  0  0  0  0  0  0
    3.2014  -10.3190    0.0000 C   0  0  0  0  0  0  0  0  0  0  0  0
    2.9410   -8.8418    0.0000 C   0  0  0  0  0  0  0  0  0  0  0  0
    4.0900   -7.8776    0.0000 C   0  0  0  0  0  0  0  0  0  0  0  0
    3.8296   -6.4004    0.0000 C   0  0  0  0  0  0  0  0  0  0  0  0
    2.4200   -5.8874    0.0000 C   0  0  0  0  0  0  0  0  0  0  0  0
    2.1595   -4.4101    0.0000 C   0  0  0  0  0  0  0  0  0  0  0  0
    3.3086   -3.4460    0.0000 N   0  0  0  0  0  0  0  0  0  0  0  0
    4.7181   -3.9590    0.0000 C   0  0  0  0  0  0  0  0  0  0  0  0
    4.9786   -5.4362    0.0000 C   0  0  0  0  0  0  0  0  0  0  0  0
    6.3882   -5.9492    0.0000 C   0  0  0  0  0  0  0  0  0  0  0  0
    7.5372   -4.9851    0.0000 C   0  0  0  0  0  0  0  0  0  0  0  0
    7.2768   -3.5078    0.0000 C   0  0  0  0  0  0  0  0  0  0  0  0
    8.4258   -2.5437    0.0000 O   0  0  0  0  0  0  0  0  0  0  0  0
    9.8354   -3.0567    0.0000 C   0  0  0  0  0  0  0  0  0  0  0  0
   10.0958   -4.5339    0.0000 C   0  0  0  0  0  0  0  0  0  0  0  0
   11.5054   -5.0469    0.0000 C   0  0  0  0  0  0  0  0  0  0  0  0
   12.6544   -4.0828    0.0000 C   0  0  0  0  0  0  0  0  0  0  0  0
   14.0640   -4.5958    0.0000 C   0  0  0  0  0  0  0  0  0  0  0  0
   15.4735   -5.1088    0.0000 N   0  0  0  0  0  0  0  0  0  0  0  0
   12.3940   -2.6055    0.0000 C   0  0  0  0  0  0  0  0  0  0  0  0
   13.5430   -1.6414    0.0000 C   0  0  0  0  0  0  0  0  0  0  0  0
   14.6921   -0.6772    0.0000 N   0  0  0  0  0  0  0  0  0  0  0  0
   10.9844   -2.0925    0.0000 C   0  0  0  0  0  0  0  0  0  0  0  0
    5.8672   -2.9948    0.0000 C   0  0  0  0  0  0  0  0  0  0  0  0
    0.7500   -3.8971    0.0000 P   0  0  0  0  0  0  0  0  0  0  0  0
    0.4895   -5.3743    0.0000 O   0  0  0  0  0  0  0  0  0  0  0  0
    1.5000   -2.5981    0.0000 O   0  0  0  0  0  0  0  0  0  0  0  0
    0.7500   -1.2990    0.0000 C   0  0  0  0  0  0  0  0  0  0  0  0
    1.5000    0.0000    0.0000 C   0  0  0  0  0  0  0  0  0  0  0  0
    0.7500    1.2990    0.0000 C   0  0  0  0  0  0  0  0  0  0  0  0
   -0.7500    1.2990    0.0000 C   0  0  0  0  0  0  0  0  0  0  0  0
   -1.5000    0.0000    0.0000 C   0  0  0  0  0  0  0  0  0  0  0  0
   -0.7500   -1.2990    0.0000 C   0  0  0  0  0  0  0  0  0  0  0  0
   -1.5000   -2.5981    0.0000 C   0  0  0  0  0  0  0  0  0  0  0  0
   -3.0000   -2.5981    0.0000 C   0  0  0  0  0  0  0  0  0  0  0  0
   -3.7500   -3.8971    0.0000 C   0  0  0  0  0  0  0  0  0  0  0  0
   -3.0000   -5.1962    0.0000 C   0  0  0  0  0  0  0  0  0  0  0  0
   -1.5000   -5.1962    0.0000 C   0  0  0  0  0  0  0  0  0  0  0  0
   -0.7500   -3.8971    0.0000 C   0  0  0  0  0  0  0  0  0  0  0  0
    1.2709   -6.8515    0.0000 C   0  0  0  0  0  0  0  0  0  0  0  0
    1.5314   -8.3287    0.0000 C   0  0  0  0  0  0  0  0  0  0  0  0
    4.6110  -10.8320    0.0000 P   0  0  0  0  0  0  0  0  0  0  0  0
    3.8610  -12.1311    0.0000 O   0  0  0  0  0  0  0  0  0  0  0  0
    4.8714   -9.3548    0.0000 O   0  0  0  0  0  0  0  0  0  0  0  0
    6.2810   -8.8418    0.0000 C   0  0  0  0  0  0  0  0  0  0  0  0
    6.5415   -7.3646    0.0000 C   0  0  0  0  0  0  0  0  0  0  0  0
    7.9510   -6.8515    0.0000 C   0  0  0  0  0  0  0  0  0  0  0  0
    9.1001   -7.8157    0.0000 C   0  0  0  0  0  0  0  0  0  0  0  0
    8.8396   -9.2929    0.0000 C   0  0  0  0  0  0  0  0  0  0  0  0
    7.4300   -9.8060    0.0000 C   0  0  0  0  0  0  0  0  0  0  0  0
    7.1696  -11.2832    0.0000 C   0  0  0  0  0  0  0  0  0  0  0  0
    8.3186  -12.2474    0.0000 C   0  0  0  0  0  0  0  0  0  0  0  0
    8.0582  -13.7246    0.0000 C   0  0  0  0  0  0  0  0  0  0  0  0
    6.6486  -14.2376    0.0000 C   0  0  0  0  0  0  0  0  0  0  0  0
    5.4996  -13.2734    0.0000 C   0  0  0  0  0  0  0  0  0  0  0  0
    5.7600  -11.7962    0.0000 C   0  0  0  0  0  0  0  0  0  0  0  0
    1.1638  -13.7246    0.0000 C   0  0  0  0  0  0  0  0  0  0  0  0
   -2.2834  -16.6171    0.0000 C   0  0  0  0  0  0  0  0  0  0  0  0
   -3.6930  -16.1041    0.0000 C   0  0  0  0  0  0  0  0  0  0  0  0
   -4.8420  -17.0683    0.0000 C   0  0  0  0  0  0  0  0  0  0  0  0
   -5.9911  -18.0324    0.0000 N   0  0  0  0  0  0  0  0  0  0  0  0
   -3.9534  -14.6269    0.0000 C   0  0  0  0  0  0  0  0  0  0  0  0
   -5.3630  -14.1138    0.0000 C   0  0  0  0  0  0  0  0  0  0  0  0
   -6.7725  -13.6008    0.0000 N   0  0  0  0  0  0  0  0  0  0  0  0
  1  2  1  0
  2  3  1  0
  2  4  1  0
  2  5  1  0
  5  6  1  0
  6  7  1  0
  6  8  1  0
  6  9  1  0
  9 10  2  0
 10 11  1  0
 11 12  1  0
 12 13  1  0
 13 14  2  0
 14 15  1  0
 15 16  2  0
 16 17  1  0
 17 18  1  0
 18 19  1  0
 19 20  1  0
 20 21  2  0
 21 22  1  0
 22 23  2  0
 23 24  1  0
 24 25  1  0
 25 26  1  0
 26 27  2  0
 27 28  1  0
 28 29  2  0
 29 30  1  0
 30 31  1  0
 31 32  1  0
 32 33  2  0
 33 34  1  0
 34 35  2  0
 35 36  1  0
 36 37  3  0
 35 38  1  0
 38 39  1  0
 39 40  3  0
 38 41  2  0
 30 42  2  0
 24 43  1  0
 43 44  2  0
 43 45  1  0
 45 46  1  0
 46 47  2  0
 47 48  1  0
 48 49  2  0
 49 50  1  0
 50 51  2  0
 51 52  1  0
 52 53  2  0
 53 54  1  0
 54 55  2  0
 55 56  1  0
 56 57  2  0
 23 58  1  0
 58 59  2  0
 19 60  1  0
 60 61  2  0
 60 62  1  0
 62 63  1  0
 63 64  2  0
 64 65  1  0
 65 66  2  0
 66 67  1  0
 67 68  2  0
 68 69  1  0
 69 70  2  0
 70 71  1  0
 71 72  2  0
 72 73  1  0
 73 74  2  0
 17 75  2  0
 11 76  2  0
 76 77  1  0
 77 78  1  0
 78 79  3  0
 77 80  2  0
 80 81  1  0
 81 82  3  0
 80  9  1  0
 75 13  1  0
 59 20  1  0
 74 60  1  0
 42 26  1  0
 57 43  1  0
 68 63  1  0
 74 69  1  0
 41 32  1  0
 51 46  1  0
 57 52  1  0
M  END
>  <Candidate_ID>  (52) 
CAND_R2_052

>  <Candidate_Name>  (52) 
PBD-disiloxane

>  <Parent_Seed_ID>  (52) 
TRAIN_020

>  <Parent_Name>  (52) 
PBD

>  <Transformation_Code>  (52) 
disiloxane

>  <Design_Family>  (52) 
P-N-Si

>  <Preparation_Type>  (52) 
Additive

>  <Synthesis_Level>  (52) 
B

>  <Parent_Tanimoto_r3>  (52) 
0.7757009345794392

>  <Max_Train_Tanimoto_r3>  (52) 
0.7757009345794392

>  <Risk_Flags>  (52) 
none

$$$$
CAND_R2_053 | PBD-glycidyloxy
     RDKit          2D

 79 90  0  0  0  0  0  0  0  0999 V2000
   -6.7725  -13.6008    0.0000 N   0  0  0  0  0  0  0  0  0  0  0  0
   -5.3630  -14.1138    0.0000 C   0  0  0  0  0  0  0  0  0  0  0  0
   -3.9534  -14.6269    0.0000 C   0  0  0  0  0  0  0  0  0  0  0  0
   -2.8044  -13.6627    0.0000 C   0  0  0  0  0  0  0  0  0  0  0  0
   -1.3948  -14.1757    0.0000 C   0  0  0  0  0  0  0  0  0  0  0  0
   -1.1344  -15.6529    0.0000 C   0  0  0  0  0  0  0  0  0  0  0  0
    0.2752  -16.1660    0.0000 O   0  0  0  0  0  0  0  0  0  0  0  0
    1.4242  -15.2018    0.0000 C   0  0  0  0  0  0  0  0  0  0  0  0
    2.8338  -15.7148    0.0000 C   0  0  0  0  0  0  0  0  0  0  0  0
    3.9828  -14.7506    0.0000 C   0  0  0  0  0  0  0  0  0  0  0  0
    3.7224  -13.2734    0.0000 C   0  0  0  0  0  0  0  0  0  0  0  0
    2.3128  -12.7604    0.0000 C   0  0  0  0  0  0  0  0  0  0  0  0
    2.0524  -11.2832    0.0000 N   0  0  0  0  0  0  0  0  0  0  0  0
    3.2014  -10.3190    0.0000 C   0  0  0  0  0  0  0  0  0  0  0  0
    2.9410   -8.8418    0.0000 C   0  0  0  0  0  0  0  0  0  0  0  0
    4.0900   -7.8776    0.0000 C   0  0  0  0  0  0  0  0  0  0  0  0
    3.8296   -6.4004    0.0000 C   0  0  0  0  0  0  0  0  0  0  0  0
    2.4200   -5.8874    0.0000 C   0  0  0  0  0  0  0  0  0  0  0  0
    2.1595   -4.4101    0.0000 C   0  0  0  0  0  0  0  0  0  0  0  0
    3.3086   -3.4460    0.0000 N   0  0  0  0  0  0  0  0  0  0  0  0
    4.7181   -3.9590    0.0000 C   0  0  0  0  0  0  0  0  0  0  0  0
    4.9786   -5.4362    0.0000 C   0  0  0  0  0  0  0  0  0  0  0  0
    6.3882   -5.9492    0.0000 C   0  0  0  0  0  0  0  0  0  0  0  0
    7.5372   -4.9851    0.0000 C   0  0  0  0  0  0  0  0  0  0  0  0
    7.2768   -3.5078    0.0000 C   0  0  0  0  0  0  0  0  0  0  0  0
    8.4258   -2.5437    0.0000 O   0  0  0  0  0  0  0  0  0  0  0  0
    9.8354   -3.0567    0.0000 C   0  0  0  0  0  0  0  0  0  0  0  0
   10.0958   -4.5339    0.0000 C   0  0  0  0  0  0  0  0  0  0  0  0
   11.5054   -5.0469    0.0000 C   0  0  0  0  0  0  0  0  0  0  0  0
   11.7658   -6.5241    0.0000 C   0  0  0  0  0  0  0  0  0  0  0  0
   12.0263   -8.0014    0.0000 N   0  0  0  0  0  0  0  0  0  0  0  0
   12.6544   -4.0828    0.0000 C   0  0  0  0  0  0  0  0  0  0  0  0
   14.0640   -4.5958    0.0000 C   0  0  0  0  0  0  0  0  0  0  0  0
   15.4735   -5.1088    0.0000 N   0  0  0  0  0  0  0  0  0  0  0  0
   12.3940   -2.6055    0.0000 C   0  0  0  0  0  0  0  0  0  0  0  0
   13.5430   -1.6414    0.0000 O   0  0  0  0  0  0  0  0  0  0  0  0
   13.2826   -0.1641    0.0000 C   0  0  0  0  0  0  0  0  0  0  0  0
   14.4316    0.8000    0.0000 C   0  0  0  0  0  0  0  0  0  0  0  0
   14.9447    2.2096    0.0000 C   0  0  0  0  0  0  0  0  0  0  0  0
   15.9088    1.0605    0.0000 O   0  0  0  0  0  0  0  0  0  0  0  0
   10.9844   -2.0925    0.0000 C   0  0  0  0  0  0  0  0  0  0  0  0
    5.8672   -2.9948    0.0000 C   0  0  0  0  0  0  0  0  0  0  0  0
    0.7500   -3.8971    0.0000 P   0  0  0  0  0  0  0  0  0  0  0  0
    0.4895   -5.3743    0.0000 O   0  0  0  0  0  0  0  0  0  0  0  0
    1.5000   -2.5981    0.0000 O   0  0  0  0  0  0  0  0  0  0  0  0
    0.7500   -1.2990    0.0000 C   0  0  0  0  0  0  0  0  0  0  0  0
    1.5000    0.0000    0.0000 C   0  0  0  0  0  0  0  0  0  0  0  0
    0.7500    1.2990    0.0000 C   0  0  0  0  0  0  0  0  0  0  0  0
   -0.7500    1.2990    0.0000 C   0  0  0  0  0  0  0  0  0  0  0  0
   -1.5000    0.0000    0.0000 C   0  0  0  0  0  0  0  0  0  0  0  0
   -0.7500   -1.2990    0.0000 C   0  0  0  0  0  0  0  0  0  0  0  0
   -1.5000   -2.5981    0.0000 C   0  0  0  0  0  0  0  0  0  0  0  0
   -3.0000   -2.5981    0.0000 C   0  0  0  0  0  0  0  0  0  0  0  0
   -3.7500   -3.8971    0.0000 C   0  0  0  0  0  0  0  0  0  0  0  0
   -3.0000   -5.1962    0.0000 C   0  0  0  0  0  0  0  0  0  0  0  0
   -1.5000   -5.1962    0.0000 C   0  0  0  0  0  0  0  0  0  0  0  0
   -0.7500   -3.8971    0.0000 C   0  0  0  0  0  0  0  0  0  0  0  0
    1.2709   -6.8515    0.0000 C   0  0  0  0  0  0  0  0  0  0  0  0
    1.5314   -8.3287    0.0000 C   0  0  0  0  0  0  0  0  0  0  0  0
    4.6110  -10.8320    0.0000 P   0  0  0  0  0  0  0  0  0  0  0  0
    3.8610  -12.1311    0.0000 O   0  0  0  0  0  0  0  0  0  0  0  0
    4.8714   -9.3548    0.0000 O   0  0  0  0  0  0  0  0  0  0  0  0
    6.2810   -8.8418    0.0000 C   0  0  0  0  0  0  0  0  0  0  0  0
    6.5415   -7.3646    0.0000 C   0  0  0  0  0  0  0  0  0  0  0  0
    7.9510   -6.8515    0.0000 C   0  0  0  0  0  0  0  0  0  0  0  0
    9.1001   -7.8157    0.0000 C   0  0  0  0  0  0  0  0  0  0  0  0
    8.8396   -9.2929    0.0000 C   0  0  0  0  0  0  0  0  0  0  0  0
    7.4300   -9.8060    0.0000 C   0  0  0  0  0  0  0  0  0  0  0  0
    7.1696  -11.2832    0.0000 C   0  0  0  0  0  0  0  0  0  0  0  0
    8.3186  -12.2474    0.0000 C   0  0  0  0  0  0  0  0  0  0  0  0
    8.0582  -13.7246    0.0000 C   0  0  0  0  0  0  0  0  0  0  0  0
    6.6486  -14.2376    0.0000 C   0  0  0  0  0  0  0  0  0  0  0  0
    5.4996  -13.2734    0.0000 C   0  0  0  0  0  0  0  0  0  0  0  0
    5.7600  -11.7962    0.0000 C   0  0  0  0  0  0  0  0  0  0  0  0
    1.1638  -13.7246    0.0000 C   0  0  0  0  0  0  0  0  0  0  0  0
   -2.2834  -16.6171    0.0000 C   0  0  0  0  0  0  0  0  0  0  0  0
   -3.6930  -16.1041    0.0000 C   0  0  0  0  0  0  0  0  0  0  0  0
   -4.8420  -17.0683    0.0000 C   0  0  0  0  0  0  0  0  0  0  0  0
   -5.9911  -18.0324    0.0000 N   0  0  0  0  0  0  0  0  0  0  0  0
  1  2  3  0
  2  3  1  0
  3  4  2  0
  4  5  1  0
  5  6  2  0
  6  7  1  0
  7  8  1  0
  8  9  2  0
  9 10  1  0
 10 11  2  0
 11 12  1  0
 12 13  1  0
 13 14  1  0
 14 15  1  0
 15 16  2  0
 16 17  1  0
 17 18  2  0
 18 19  1  0
 19 20  1  0
 20 21  1  0
 21 22  2  0
 22 23  1  0
 23 24  2  0
 24 25  1  0
 25 26  1  0
 26 27  1  0
 27 28  2  0
 28 29  1  0
 29 30  1  0
 30 31  3  0
 29 32  2  0
 32 33  1  0
 33 34  3  0
 32 35  1  0
 35 36  1  0
 36 37  1  0
 37 38  1  0
 38 39  1  0
 39 40  1  0
 35 41  2  0
 25 42  2  0
 19 43  1  0
 43 44  2  0
 43 45  1  0
 45 46  1  0
 46 47  2  0
 47 48  1  0
 48 49  2  0
 49 50  1  0
 50 51  2  0
 51 52  1  0
 52 53  2  0
 53 54  1  0
 54 55  2  0
 55 56  1  0
 56 57  2  0
 18 58  1  0
 58 59  2  0
 14 60  1  0
 60 61  2  0
 60 62  1  0
 62 63  1  0
 63 64  2  0
 64 65  1  0
 65 66  2  0
 66 67  1  0
 67 68  2  0
 68 69  1  0
 69 70  2  0
 70 71  1  0
 71 72  2  0
 72 73  1  0
 73 74  2  0
 12 75  2  0
  6 76  1  0
 76 77  2  0
 77 78  1  0
 78 79  3  0
 77  3  1  0
 75  8  1  0
 59 15  1  0
 74 60  1  0
 42 21  1  0
 57 43  1  0
 68 63  1  0
 74 69  1  0
 41 27  1  0
 51 46  1  0
 57 52  1  0
 40 38  1  0
M  END
>  <Candidate_ID>  (53) 
CAND_R2_053

>  <Candidate_Name>  (53) 
PBD-glycidyloxy

>  <Parent_Seed_ID>  (53) 
TRAIN_020

>  <Parent_Name>  (53) 
PBD

>  <Transformation_Code>  (53) 
glycidyloxy

>  <Design_Family>  (53) 
P-N

>  <Preparation_Type>  (53) 
Co-curing

>  <Synthesis_Level>  (53) 
B

>  <Parent_Tanimoto_r3>  (53) 
0.7545454545454545

>  <Max_Train_Tanimoto_r3>  (53) 
0.7545454545454545

>  <Risk_Flags>  (53) 
none

$$$$
CAND_R2_054 | PBD-diaminotriazine
     RDKit          2D

 82 93  0  0  0  0  0  0  0  0999 V2000
   -6.7725  -13.6008    0.0000 N   0  0  0  0  0  0  0  0  0  0  0  0
   -5.3630  -14.1138    0.0000 C   0  0  0  0  0  0  0  0  0  0  0  0
   -3.9534  -14.6269    0.0000 C   0  0  0  0  0  0  0  0  0  0  0  0
   -2.8044  -13.6627    0.0000 C   0  0  0  0  0  0  0  0  0  0  0  0
   -1.3948  -14.1757    0.0000 C   0  0  0  0  0  0  0  0  0  0  0  0
   -1.1344  -15.6529    0.0000 C   0  0  0  0  0  0  0  0  0  0  0  0
    0.2752  -16.1660    0.0000 O   0  0  0  0  0  0  0  0  0  0  0  0
    1.4242  -15.2018    0.0000 C   0  0  0  0  0  0  0  0  0  0  0  0
    2.8338  -15.7148    0.0000 C   0  0  0  0  0  0  0  0  0  0  0  0
    3.9828  -14.7506    0.0000 C   0  0  0  0  0  0  0  0  0  0  0  0
    3.7224  -13.2734    0.0000 C   0  0  0  0  0  0  0  0  0  0  0  0
    2.3128  -12.7604    0.0000 C   0  0  0  0  0  0  0  0  0  0  0  0
    2.0524  -11.2832    0.0000 N   0  0  0  0  0  0  0  0  0  0  0  0
    3.2014  -10.3190    0.0000 C   0  0  0  0  0  0  0  0  0  0  0  0
    2.9410   -8.8418    0.0000 C   0  0  0  0  0  0  0  0  0  0  0  0
    4.0900   -7.8776    0.0000 C   0  0  0  0  0  0  0  0  0  0  0  0
    3.8296   -6.4004    0.0000 C   0  0  0  0  0  0  0  0  0  0  0  0
    2.4200   -5.8874    0.0000 C   0  0  0  0  0  0  0  0  0  0  0  0
    2.1595   -4.4101    0.0000 C   0  0  0  0  0  0  0  0  0  0  0  0
    3.3086   -3.4460    0.0000 N   0  0  0  0  0  0  0  0  0  0  0  0
    4.7181   -3.9590    0.0000 C   0  0  0  0  0  0  0  0  0  0  0  0
    4.9786   -5.4362    0.0000 C   0  0  0  0  0  0  0  0  0  0  0  0
    6.3882   -5.9492    0.0000 C   0  0  0  0  0  0  0  0  0  0  0  0
    7.5372   -4.9851    0.0000 C   0  0  0  0  0  0  0  0  0  0  0  0
    7.2768   -3.5078    0.0000 C   0  0  0  0  0  0  0  0  0  0  0  0
    8.4258   -2.5437    0.0000 O   0  0  0  0  0  0  0  0  0  0  0  0
    9.8354   -3.0567    0.0000 C   0  0  0  0  0  0  0  0  0  0  0  0
   10.0958   -4.5339    0.0000 C   0  0  0  0  0  0  0  0  0  0  0  0
   11.5054   -5.0469    0.0000 C   0  0  0  0  0  0  0  0  0  0  0  0
   11.7658   -6.5241    0.0000 C   0  0  0  0  0  0  0  0  0  0  0  0
   12.0263   -8.0014    0.0000 N   0  0  0  0  0  0  0  0  0  0  0  0
   12.6544   -4.0828    0.0000 C   0  0  0  0  0  0  0  0  0  0  0  0
   14.0640   -4.5958    0.0000 C   0  0  0  0  0  0  0  0  0  0  0  0
   15.4735   -5.1088    0.0000 N   0  0  0  0  0  0  0  0  0  0  0  0
   12.3940   -2.6055    0.0000 C   0  0  0  0  0  0  0  0  0  0  0  0
   13.5430   -1.6414    0.0000 C   0  0  0  0  0  0  0  0  0  0  0  0
   14.9526   -2.1544    0.0000 N   0  0  0  0  0  0  0  0  0  0  0  0
   16.1016   -1.1902    0.0000 C   0  0  0  0  0  0  0  0  0  0  0  0
   17.5112   -1.7032    0.0000 N   0  0  0  0  0  0  0  0  0  0  0  0
   15.8412    0.2870    0.0000 N   0  0  0  0  0  0  0  0  0  0  0  0
   14.4316    0.8000    0.0000 C   0  0  0  0  0  0  0  0  0  0  0  0
   14.1712    2.2772    0.0000 N   0  0  0  0  0  0  0  0  0  0  0  0
   13.2826   -0.1641    0.0000 N   0  0  0  0  0  0  0  0  0  0  0  0
   10.9844   -2.0925    0.0000 C   0  0  0  0  0  0  0  0  0  0  0  0
    5.8672   -2.9948    0.0000 C   0  0  0  0  0  0  0  0  0  0  0  0
    0.7500   -3.8971    0.0000 P   0  0  0  0  0  0  0  0  0  0  0  0
    0.4895   -5.3743    0.0000 O   0  0  0  0  0  0  0  0  0  0  0  0
    1.5000   -2.5981    0.0000 O   0  0  0  0  0  0  0  0  0  0  0  0
    0.7500   -1.2990    0.0000 C   0  0  0  0  0  0  0  0  0  0  0  0
    1.5000    0.0000    0.0000 C   0  0  0  0  0  0  0  0  0  0  0  0
    0.7500    1.2990    0.0000 C   0  0  0  0  0  0  0  0  0  0  0  0
   -0.7500    1.2990    0.0000 C   0  0  0  0  0  0  0  0  0  0  0  0
   -1.5000    0.0000    0.0000 C   0  0  0  0  0  0  0  0  0  0  0  0
   -0.7500   -1.2990    0.0000 C   0  0  0  0  0  0  0  0  0  0  0  0
   -1.5000   -2.5981    0.0000 C   0  0  0  0  0  0  0  0  0  0  0  0
   -3.0000   -2.5981    0.0000 C   0  0  0  0  0  0  0  0  0  0  0  0
   -3.7500   -3.8971    0.0000 C   0  0  0  0  0  0  0  0  0  0  0  0
   -3.0000   -5.1962    0.0000 C   0  0  0  0  0  0  0  0  0  0  0  0
   -1.5000   -5.1962    0.0000 C   0  0  0  0  0  0  0  0  0  0  0  0
   -0.7500   -3.8971    0.0000 C   0  0  0  0  0  0  0  0  0  0  0  0
    1.2709   -6.8515    0.0000 C   0  0  0  0  0  0  0  0  0  0  0  0
    1.5314   -8.3287    0.0000 C   0  0  0  0  0  0  0  0  0  0  0  0
    4.6110  -10.8320    0.0000 P   0  0  0  0  0  0  0  0  0  0  0  0
    3.8610  -12.1311    0.0000 O   0  0  0  0  0  0  0  0  0  0  0  0
    4.8714   -9.3548    0.0000 O   0  0  0  0  0  0  0  0  0  0  0  0
    6.2810   -8.8418    0.0000 C   0  0  0  0  0  0  0  0  0  0  0  0
    6.5415   -7.3646    0.0000 C   0  0  0  0  0  0  0  0  0  0  0  0
    7.9510   -6.8515    0.0000 C   0  0  0  0  0  0  0  0  0  0  0  0
    9.1001   -7.8157    0.0000 C   0  0  0  0  0  0  0  0  0  0  0  0
    8.8396   -9.2929    0.0000 C   0  0  0  0  0  0  0  0  0  0  0  0
    7.4300   -9.8060    0.0000 C   0  0  0  0  0  0  0  0  0  0  0  0
    7.1696  -11.2832    0.0000 C   0  0  0  0  0  0  0  0  0  0  0  0
    8.3186  -12.2474    0.0000 C   0  0  0  0  0  0  0  0  0  0  0  0
    8.0582  -13.7246    0.0000 C   0  0  0  0  0  0  0  0  0  0  0  0
    6.6486  -14.2376    0.0000 C   0  0  0  0  0  0  0  0  0  0  0  0
    5.4996  -13.2734    0.0000 C   0  0  0  0  0  0  0  0  0  0  0  0
    5.7600  -11.7962    0.0000 C   0  0  0  0  0  0  0  0  0  0  0  0
    1.1638  -13.7246    0.0000 C   0  0  0  0  0  0  0  0  0  0  0  0
   -2.2834  -16.6171    0.0000 C   0  0  0  0  0  0  0  0  0  0  0  0
   -3.6930  -16.1041    0.0000 C   0  0  0  0  0  0  0  0  0  0  0  0
   -4.8420  -17.0683    0.0000 C   0  0  0  0  0  0  0  0  0  0  0  0
   -5.9911  -18.0324    0.0000 N   0  0  0  0  0  0  0  0  0  0  0  0
  1  2  3  0
  2  3  1  0
  3  4  2  0
  4  5  1  0
  5  6  2  0
  6  7  1  0
  7  8  1  0
  8  9  2  0
  9 10  1  0
 10 11  2  0
 11 12  1  0
 12 13  1  0
 13 14  1  0
 14 15  1  0
 15 16  2  0
 16 17  1  0
 17 18  2  0
 18 19  1  0
 19 20  1  0
 20 21  1  0
 21 22  2  0
 22 23  1  0
 23 24  2  0
 24 25  1  0
 25 26  1  0
 26 27  1  0
 27 28  2  0
 28 29  1  0
 29 30  1  0
 30 31  3  0
 29 32  2  0
 32 33  1  0
 33 34  3  0
 32 35  1  0
 35 36  1  0
 36 37  2  0
 37 38  1  0
 38 39  1  0
 38 40  2  0
 40 41  1  0
 41 42  1  0
 41 43  2  0
 35 44  2  0
 25 45  2  0
 19 46  1  0
 46 47  2  0
 46 48  1  0
 48 49  1  0
 49 50  2  0
 50 51  1  0
 51 52  2  0
 52 53  1  0
 53 54  2  0
 54 55  1  0
 55 56  2  0
 56 57  1  0
 57 58  2  0
 58 59  1  0
 59 60  2  0
 18 61  1  0
 61 62  2  0
 14 63  1  0
 63 64  2  0
 63 65  1  0
 65 66  1  0
 66 67  2  0
 67 68  1  0
 68 69  2  0
 69 70  1  0
 70 71  2  0
 71 72  1  0
 72 73  2  0
 73 74  1  0
 74 75  2  0
 75 76  1  0
 76 77  2  0
 12 78  2  0
  6 79  1  0
 79 80  2  0
 80 81  1  0
 81 82  3  0
 80  3  1  0
 78  8  1  0
 62 15  1  0
 77 63  1  0
 45 21  1  0
 60 46  1  0
 71 66  1  0
 77 72  1  0
 44 27  1  0
 54 49  1  0
 60 55  1  0
 43 36  1  0
M  END
>  <Candidate_ID>  (54) 
CAND_R2_054

>  <Candidate_Name>  (54) 
PBD-diaminotriazine

>  <Parent_Seed_ID>  (54) 
TRAIN_020

>  <Parent_Name>  (54) 
PBD

>  <Transformation_Code>  (54) 
diaminotriazine

>  <Design_Family>  (54) 
P-N

>  <Preparation_Type>  (54) 
Co-curing

>  <Synthesis_Level>  (54) 
B

>  <Parent_Tanimoto_r3>  (54) 
0.7545454545454545

>  <Max_Train_Tanimoto_r3>  (54) 
0.7545454545454545

>  <Risk_Flags>  (54) 
none

$$$$
CAND_R2_055 | PBD-piperazine
     RDKit          2D

 80 91  0  0  0  0  0  0  0  0999 V2000
   -6.7725  -13.6008    0.0000 N   0  0  0  0  0  0  0  0  0  0  0  0
   -5.3630  -14.1138    0.0000 C   0  0  0  0  0  0  0  0  0  0  0  0
   -3.9534  -14.6269    0.0000 C   0  0  0  0  0  0  0  0  0  0  0  0
   -2.8044  -13.6627    0.0000 C   0  0  0  0  0  0  0  0  0  0  0  0
   -1.3948  -14.1757    0.0000 C   0  0  0  0  0  0  0  0  0  0  0  0
   -1.1344  -15.6529    0.0000 C   0  0  0  0  0  0  0  0  0  0  0  0
    0.2752  -16.1660    0.0000 O   0  0  0  0  0  0  0  0  0  0  0  0
    1.4242  -15.2018    0.0000 C   0  0  0  0  0  0  0  0  0  0  0  0
    2.8338  -15.7148    0.0000 C   0  0  0  0  0  0  0  0  0  0  0  0
    3.9828  -14.7506    0.0000 C   0  0  0  0  0  0  0  0  0  0  0  0
    3.7224  -13.2734    0.0000 C   0  0  0  0  0  0  0  0  0  0  0  0
    2.3128  -12.7604    0.0000 C   0  0  0  0  0  0  0  0  0  0  0  0
    2.0524  -11.2832    0.0000 N   0  0  0  0  0  0  0  0  0  0  0  0
    3.2014  -10.3190    0.0000 C   0  0  0  0  0  0  0  0  0  0  0  0
    2.9410   -8.8418    0.0000 C   0  0  0  0  0  0  0  0  0  0  0  0
    4.0900   -7.8776    0.0000 C   0  0  0  0  0  0  0  0  0  0  0  0
    3.8296   -6.4004    0.0000 C   0  0  0  0  0  0  0  0  0  0  0  0
    2.4200   -5.8874    0.0000 C   0  0  0  0  0  0  0  0  0  0  0  0
    2.1595   -4.4101    0.0000 C   0  0  0  0  0  0  0  0  0  0  0  0
    3.3086   -3.4460    0.0000 N   0  0  0  0  0  0  0  0  0  0  0  0
    4.7181   -3.9590    0.0000 C   0  0  0  0  0  0  0  0  0  0  0  0
    4.9786   -5.4362    0.0000 C   0  0  0  0  0  0  0  0  0  0  0  0
    6.3882   -5.9492    0.0000 C   0  0  0  0  0  0  0  0  0  0  0  0
    7.5372   -4.9851    0.0000 C   0  0  0  0  0  0  0  0  0  0  0  0
    7.2768   -3.5078    0.0000 C   0  0  0  0  0  0  0  0  0  0  0  0
    8.4258   -2.5437    0.0000 O   0  0  0  0  0  0  0  0  0  0  0  0
    9.8354   -3.0567    0.0000 C   0  0  0  0  0  0  0  0  0  0  0  0
   10.0958   -4.5339    0.0000 C   0  0  0  0  0  0  0  0  0  0  0  0
   11.5054   -5.0469    0.0000 C   0  0  0  0  0  0  0  0  0  0  0  0
   11.7658   -6.5241    0.0000 C   0  0  0  0  0  0  0  0  0  0  0  0
   12.0263   -8.0014    0.0000 N   0  0  0  0  0  0  0  0  0  0  0  0
   12.6544   -4.0828    0.0000 C   0  0  0  0  0  0  0  0  0  0  0  0
   14.0640   -4.5958    0.0000 C   0  0  0  0  0  0  0  0  0  0  0  0
   15.4735   -5.1088    0.0000 N   0  0  0  0  0  0  0  0  0  0  0  0
   12.3940   -2.6055    0.0000 C   0  0  0  0  0  0  0  0  0  0  0  0
   13.5430   -1.6414    0.0000 N   0  0  0  0  0  0  0  0  0  0  0  0
   14.9526   -2.1544    0.0000 C   0  0  0  0  0  0  0  0  0  0  0  0
   16.1016   -1.1902    0.0000 C   0  0  0  0  0  0  0  0  0  0  0  0
   15.8412    0.2870    0.0000 N   0  0  0  0  0  0  0  0  0  0  0  0
   14.4316    0.8000    0.0000 C   0  0  0  0  0  0  0  0  0  0  0  0
   13.2826   -0.1641    0.0000 C   0  0  0  0  0  0  0  0  0  0  0  0
   10.9844   -2.0925    0.0000 C   0  0  0  0  0  0  0  0  0  0  0  0
    5.8672   -2.9948    0.0000 C   0  0  0  0  0  0  0  0  0  0  0  0
    0.7500   -3.8971    0.0000 P   0  0  0  0  0  0  0  0  0  0  0  0
    0.4895   -5.3743    0.0000 O   0  0  0  0  0  0  0  0  0  0  0  0
    1.5000   -2.5981    0.0000 O   0  0  0  0  0  0  0  0  0  0  0  0
    0.7500   -1.2990    0.0000 C   0  0  0  0  0  0  0  0  0  0  0  0
    1.5000    0.0000    0.0000 C   0  0  0  0  0  0  0  0  0  0  0  0
    0.7500    1.2990    0.0000 C   0  0  0  0  0  0  0  0  0  0  0  0
   -0.7500    1.2990    0.0000 C   0  0  0  0  0  0  0  0  0  0  0  0
   -1.5000    0.0000    0.0000 C   0  0  0  0  0  0  0  0  0  0  0  0
   -0.7500   -1.2990    0.0000 C   0  0  0  0  0  0  0  0  0  0  0  0
   -1.5000   -2.5981    0.0000 C   0  0  0  0  0  0  0  0  0  0  0  0
   -3.0000   -2.5981    0.0000 C   0  0  0  0  0  0  0  0  0  0  0  0
   -3.7500   -3.8971    0.0000 C   0  0  0  0  0  0  0  0  0  0  0  0
   -3.0000   -5.1962    0.0000 C   0  0  0  0  0  0  0  0  0  0  0  0
   -1.5000   -5.1962    0.0000 C   0  0  0  0  0  0  0  0  0  0  0  0
   -0.7500   -3.8971    0.0000 C   0  0  0  0  0  0  0  0  0  0  0  0
    1.2709   -6.8515    0.0000 C   0  0  0  0  0  0  0  0  0  0  0  0
    1.5314   -8.3287    0.0000 C   0  0  0  0  0  0  0  0  0  0  0  0
    4.6110  -10.8320    0.0000 P   0  0  0  0  0  0  0  0  0  0  0  0
    3.8610  -12.1311    0.0000 O   0  0  0  0  0  0  0  0  0  0  0  0
    4.8714   -9.3548    0.0000 O   0  0  0  0  0  0  0  0  0  0  0  0
    6.2810   -8.8418    0.0000 C   0  0  0  0  0  0  0  0  0  0  0  0
    6.5415   -7.3646    0.0000 C   0  0  0  0  0  0  0  0  0  0  0  0
    7.9510   -6.8515    0.0000 C   0  0  0  0  0  0  0  0  0  0  0  0
    9.1001   -7.8157    0.0000 C   0  0  0  0  0  0  0  0  0  0  0  0
    8.8396   -9.2929    0.0000 C   0  0  0  0  0  0  0  0  0  0  0  0
    7.4300   -9.8060    0.0000 C   0  0  0  0  0  0  0  0  0  0  0  0
    7.1696  -11.2832    0.0000 C   0  0  0  0  0  0  0  0  0  0  0  0
    8.3186  -12.2474    0.0000 C   0  0  0  0  0  0  0  0  0  0  0  0
    8.0582  -13.7246    0.0000 C   0  0  0  0  0  0  0  0  0  0  0  0
    6.6486  -14.2376    0.0000 C   0  0  0  0  0  0  0  0  0  0  0  0
    5.4996  -13.2734    0.0000 C   0  0  0  0  0  0  0  0  0  0  0  0
    5.7600  -11.7962    0.0000 C   0  0  0  0  0  0  0  0  0  0  0  0
    1.1638  -13.7246    0.0000 C   0  0  0  0  0  0  0  0  0  0  0  0
   -2.2834  -16.6171    0.0000 C   0  0  0  0  0  0  0  0  0  0  0  0
   -3.6930  -16.1041    0.0000 C   0  0  0  0  0  0  0  0  0  0  0  0
   -4.8420  -17.0683    0.0000 C   0  0  0  0  0  0  0  0  0  0  0  0
   -5.9911  -18.0324    0.0000 N   0  0  0  0  0  0  0  0  0  0  0  0
  1  2  3  0
  2  3  1  0
  3  4  2  0
  4  5  1  0
  5  6  2  0
  6  7  1  0
  7  8  1  0
  8  9  2  0
  9 10  1  0
 10 11  2  0
 11 12  1  0
 12 13  1  0
 13 14  1  0
 14 15  1  0
 15 16  2  0
 16 17  1  0
 17 18  2  0
 18 19  1  0
 19 20  1  0
 20 21  1  0
 21 22  2  0
 22 23  1  0
 23 24  2  0
 24 25  1  0
 25 26  1  0
 26 27  1  0
 27 28  2  0
 28 29  1  0
 29 30  1  0
 30 31  3  0
 29 32  2  0
 32 33  1  0
 33 34  3  0
 32 35  1  0
 35 36  1  0
 36 37  1  0
 37 38  1  0
 38 39  1  0
 39 40  1  0
 40 41  1  0
 35 42  2  0
 25 43  2  0
 19 44  1  0
 44 45  2  0
 44 46  1  0
 46 47  1  0
 47 48  2  0
 48 49  1  0
 49 50  2  0
 50 51  1  0
 51 52  2  0
 52 53  1  0
 53 54  2  0
 54 55  1  0
 55 56  2  0
 56 57  1  0
 57 58  2  0
 18 59  1  0
 59 60  2  0
 14 61  1  0
 61 62  2  0
 61 63  1  0
 63 64  1  0
 64 65  2  0
 65 66  1  0
 66 67  2  0
 67 68  1  0
 68 69  2  0
 69 70  1  0
 70 71  2  0
 71 72  1  0
 72 73  2  0
 73 74  1  0
 74 75  2  0
 12 76  2  0
  6 77  1  0
 77 78  2  0
 78 79  1  0
 79 80  3  0
 78  3  1  0
 76  8  1  0
 60 15  1  0
 75 61  1  0
 43 21  1  0
 58 44  1  0
 69 64  1  0
 75 70  1  0
 42 27  1  0
 52 47  1  0
 58 53  1  0
 41 36  1  0
M  END
>  <Candidate_ID>  (55) 
CAND_R2_055

>  <Candidate_Name>  (55) 
PBD-piperazine

>  <Parent_Seed_ID>  (55) 
TRAIN_020

>  <Parent_Name>  (55) 
PBD

>  <Transformation_Code>  (55) 
piperazine

>  <Design_Family>  (55) 
P-N

>  <Preparation_Type>  (55) 
Co-curing

>  <Synthesis_Level>  (55) 
B

>  <Parent_Tanimoto_r3>  (55) 
0.7410714285714286

>  <Max_Train_Tanimoto_r3>  (55) 
0.7410714285714286

>  <Risk_Flags>  (55) 
none

$$$$
CAND_R2_056 | PBD-benzamide-linker
     RDKit          2D

 83 94  0  0  0  0  0  0  0  0999 V2000
   -6.7725  -13.6008    0.0000 N   0  0  0  0  0  0  0  0  0  0  0  0
   -5.3630  -14.1138    0.0000 C   0  0  0  0  0  0  0  0  0  0  0  0
   -3.9534  -14.6269    0.0000 C   0  0  0  0  0  0  0  0  0  0  0  0
   -2.8044  -13.6627    0.0000 C   0  0  0  0  0  0  0  0  0  0  0  0
   -1.3948  -14.1757    0.0000 C   0  0  0  0  0  0  0  0  0  0  0  0
   -1.1344  -15.6529    0.0000 C   0  0  0  0  0  0  0  0  0  0  0  0
    0.2752  -16.1660    0.0000 O   0  0  0  0  0  0  0  0  0  0  0  0
    1.4242  -15.2018    0.0000 C   0  0  0  0  0  0  0  0  0  0  0  0
    2.8338  -15.7148    0.0000 C   0  0  0  0  0  0  0  0  0  0  0  0
    3.9828  -14.7506    0.0000 C   0  0  0  0  0  0  0  0  0  0  0  0
    3.7224  -13.2734    0.0000 C   0  0  0  0  0  0  0  0  0  0  0  0
    2.3128  -12.7604    0.0000 C   0  0  0  0  0  0  0  0  0  0  0  0
    2.0524  -11.2832    0.0000 N   0  0  0  0  0  0  0  0  0  0  0  0
    3.2014  -10.3190    0.0000 C   0  0  0  0  0  0  0  0  0  0  0  0
    2.9410   -8.8418    0.0000 C   0  0  0  0  0  0  0  0  0  0  0  0
    4.0900   -7.8776    0.0000 C   0  0  0  0  0  0  0  0  0  0  0  0
    3.8296   -6.4004    0.0000 C   0  0  0  0  0  0  0  0  0  0  0  0
    2.4200   -5.8874    0.0000 C   0  0  0  0  0  0  0  0  0  0  0  0
    2.1595   -4.4101    0.0000 C   0  0  0  0  0  0  0  0  0  0  0  0
    3.3086   -3.4460    0.0000 N   0  0  0  0  0  0  0  0  0  0  0  0
    4.7181   -3.9590    0.0000 C   0  0  0  0  0  0  0  0  0  0  0  0
    4.9786   -5.4362    0.0000 C   0  0  0  0  0  0  0  0  0  0  0  0
    6.3882   -5.9492    0.0000 C   0  0  0  0  0  0  0  0  0  0  0  0
    7.5372   -4.9851    0.0000 C   0  0  0  0  0  0  0  0  0  0  0  0
    7.2768   -3.5078    0.0000 C   0  0  0  0  0  0  0  0  0  0  0  0
    8.4258   -2.5437    0.0000 O   0  0  0  0  0  0  0  0  0  0  0  0
    9.8354   -3.0567    0.0000 C   0  0  0  0  0  0  0  0  0  0  0  0
   10.0958   -4.5339    0.0000 C   0  0  0  0  0  0  0  0  0  0  0  0
   11.5054   -5.0469    0.0000 C   0  0  0  0  0  0  0  0  0  0  0  0
   11.7658   -6.5241    0.0000 C   0  0  0  0  0  0  0  0  0  0  0  0
   12.0263   -8.0014    0.0000 N   0  0  0  0  0  0  0  0  0  0  0  0
   12.6544   -4.0828    0.0000 C   0  0  0  0  0  0  0  0  0  0  0  0
   14.0640   -4.5958    0.0000 C   0  0  0  0  0  0  0  0  0  0  0  0
   15.4735   -5.1088    0.0000 N   0  0  0  0  0  0  0  0  0  0  0  0
   12.3940   -2.6055    0.0000 C   0  0  0  0  0  0  0  0  0  0  0  0
   13.5430   -1.6414    0.0000 N   0  0  0  0  0  0  0  0  0  0  0  0
   13.2826   -0.1641    0.0000 C   0  0  0  0  0  0  0  0  0  0  0  0
   11.8730    0.3489    0.0000 O   0  0  0  0  0  0  0  0  0  0  0  0
   14.4316    0.8000    0.0000 C   0  0  0  0  0  0  0  0  0  0  0  0
   15.8412    0.2870    0.0000 C   0  0  0  0  0  0  0  0  0  0  0  0
   16.9902    1.2512    0.0000 C   0  0  0  0  0  0  0  0  0  0  0  0
   16.7298    2.7284    0.0000 C   0  0  0  0  0  0  0  0  0  0  0  0
   15.3202    3.2414    0.0000 C   0  0  0  0  0  0  0  0  0  0  0  0
   14.1712    2.2772    0.0000 C   0  0  0  0  0  0  0  0  0  0  0  0
   10.9844   -2.0925    0.0000 C   0  0  0  0  0  0  0  0  0  0  0  0
    5.8672   -2.9948    0.0000 C   0  0  0  0  0  0  0  0  0  0  0  0
    0.7500   -3.8971    0.0000 P   0  0  0  0  0  0  0  0  0  0  0  0
    0.4895   -5.3743    0.0000 O   0  0  0  0  0  0  0  0  0  0  0  0
    1.5000   -2.5981    0.0000 O   0  0  0  0  0  0  0  0  0  0  0  0
    0.7500   -1.2990    0.0000 C   0  0  0  0  0  0  0  0  0  0  0  0
    1.5000    0.0000    0.0000 C   0  0  0  0  0  0  0  0  0  0  0  0
    0.7500    1.2990    0.0000 C   0  0  0  0  0  0  0  0  0  0  0  0
   -0.7500    1.2990    0.0000 C   0  0  0  0  0  0  0  0  0  0  0  0
   -1.5000    0.0000    0.0000 C   0  0  0  0  0  0  0  0  0  0  0  0
   -0.7500   -1.2990    0.0000 C   0  0  0  0  0  0  0  0  0  0  0  0
   -1.5000   -2.5981    0.0000 C   0  0  0  0  0  0  0  0  0  0  0  0
   -3.0000   -2.5981    0.0000 C   0  0  0  0  0  0  0  0  0  0  0  0
   -3.7500   -3.8971    0.0000 C   0  0  0  0  0  0  0  0  0  0  0  0
   -3.0000   -5.1962    0.0000 C   0  0  0  0  0  0  0  0  0  0  0  0
   -1.5000   -5.1962    0.0000 C   0  0  0  0  0  0  0  0  0  0  0  0
   -0.7500   -3.8971    0.0000 C   0  0  0  0  0  0  0  0  0  0  0  0
    1.2709   -6.8515    0.0000 C   0  0  0  0  0  0  0  0  0  0  0  0
    1.5314   -8.3287    0.0000 C   0  0  0  0  0  0  0  0  0  0  0  0
    4.6110  -10.8320    0.0000 P   0  0  0  0  0  0  0  0  0  0  0  0
    3.8610  -12.1311    0.0000 O   0  0  0  0  0  0  0  0  0  0  0  0
    4.8714   -9.3548    0.0000 O   0  0  0  0  0  0  0  0  0  0  0  0
    6.2810   -8.8418    0.0000 C   0  0  0  0  0  0  0  0  0  0  0  0
    6.5415   -7.3646    0.0000 C   0  0  0  0  0  0  0  0  0  0  0  0
    7.9510   -6.8515    0.0000 C   0  0  0  0  0  0  0  0  0  0  0  0
    9.1001   -7.8157    0.0000 C   0  0  0  0  0  0  0  0  0  0  0  0
    8.8396   -9.2929    0.0000 C   0  0  0  0  0  0  0  0  0  0  0  0
    7.4300   -9.8060    0.0000 C   0  0  0  0  0  0  0  0  0  0  0  0
    7.1696  -11.2832    0.0000 C   0  0  0  0  0  0  0  0  0  0  0  0
    8.3186  -12.2474    0.0000 C   0  0  0  0  0  0  0  0  0  0  0  0
    8.0582  -13.7246    0.0000 C   0  0  0  0  0  0  0  0  0  0  0  0
    6.6486  -14.2376    0.0000 C   0  0  0  0  0  0  0  0  0  0  0  0
    5.4996  -13.2734    0.0000 C   0  0  0  0  0  0  0  0  0  0  0  0
    5.7600  -11.7962    0.0000 C   0  0  0  0  0  0  0  0  0  0  0  0
    1.1638  -13.7246    0.0000 C   0  0  0  0  0  0  0  0  0  0  0  0
   -2.2834  -16.6171    0.0000 C   0  0  0  0  0  0  0  0  0  0  0  0
   -3.6930  -16.1041    0.0000 C   0  0  0  0  0  0  0  0  0  0  0  0
   -4.8420  -17.0683    0.0000 C   0  0  0  0  0  0  0  0  0  0  0  0
   -5.9911  -18.0324    0.0000 N   0  0  0  0  0  0  0  0  0  0  0  0
  1  2  3  0
  2  3  1  0
  3  4  2  0
  4  5  1  0
  5  6  2  0
  6  7  1  0
  7  8  1  0
  8  9  2  0
  9 10  1  0
 10 11  2  0
 11 12  1  0
 12 13  1  0
 13 14  1  0
 14 15  1  0
 15 16  2  0
 16 17  1  0
 17 18  2  0
 18 19  1  0
 19 20  1  0
 20 21  1  0
 21 22  2  0
 22 23  1  0
 23 24  2  0
 24 25  1  0
 25 26  1  0
 26 27  1  0
 27 28  2  0
 28 29  1  0
 29 30  1  0
 30 31  3  0
 29 32  2  0
 32 33  1  0
 33 34  3  0
 32 35  1  0
 35 36  1  0
 36 37  1  0
 37 38  2  0
 37 39  1  0
 39 40  2  0
 40 41  1  0
 41 42  2  0
 42 43  1  0
 43 44  2  0
 35 45  2  0
 25 46  2  0
 19 47  1  0
 47 48  2  0
 47 49  1  0
 49 50  1  0
 50 51  2  0
 51 52  1  0
 52 53  2  0
 53 54  1  0
 54 55  2  0
 55 56  1  0
 56 57  2  0
 57 58  1  0
 58 59  2  0
 59 60  1  0
 60 61  2  0
 18 62  1  0
 62 63  2  0
 14 64  1  0
 64 65  2  0
 64 66  1  0
 66 67  1  0
 67 68  2  0
 68 69  1  0
 69 70  2  0
 70 71  1  0
 71 72  2  0
 72 73  1  0
 73 74  2  0
 74 75  1  0
 75 76  2  0
 76 77  1  0
 77 78  2  0
 12 79  2  0
  6 80  1  0
 80 81  2  0
 81 82  1  0
 82 83  3  0
 81  3  1  0
 79  8  1  0
 63 15  1  0
 78 64  1  0
 46 21  1  0
 61 47  1  0
 72 67  1  0
 78 73  1  0
 45 27  1  0
 55 50  1  0
 61 56  1  0
 44 39  1  0
M  END
>  <Candidate_ID>  (56) 
CAND_R2_056

>  <Candidate_Name>  (56) 
PBD-benzamide-linker

>  <Parent_Seed_ID>  (56) 
TRAIN_020

>  <Parent_Name>  (56) 
PBD

>  <Transformation_Code>  (56) 
benzamide_linker

>  <Design_Family>  (56) 
P-N

>  <Preparation_Type>  (56) 
Additive

>  <Synthesis_Level>  (56) 
B

>  <Parent_Tanimoto_r3>  (56) 
0.7280701754385965

>  <Max_Train_Tanimoto_r3>  (56) 
0.7280701754385965

>  <Risk_Flags>  (56) 
none

$$$$
CAND_R2_057 | PBD-phenyl
     RDKit          2D

 80 91  0  0  0  0  0  0  0  0999 V2000
   -6.7725  -13.6008    0.0000 N   0  0  0  0  0  0  0  0  0  0  0  0
   -5.3630  -14.1138    0.0000 C   0  0  0  0  0  0  0  0  0  0  0  0
   -3.9534  -14.6269    0.0000 C   0  0  0  0  0  0  0  0  0  0  0  0
   -2.8044  -13.6627    0.0000 C   0  0  0  0  0  0  0  0  0  0  0  0
   -1.3948  -14.1757    0.0000 C   0  0  0  0  0  0  0  0  0  0  0  0
   -1.1344  -15.6529    0.0000 C   0  0  0  0  0  0  0  0  0  0  0  0
    0.2752  -16.1660    0.0000 O   0  0  0  0  0  0  0  0  0  0  0  0
    1.4242  -15.2018    0.0000 C   0  0  0  0  0  0  0  0  0  0  0  0
    2.8338  -15.7148    0.0000 C   0  0  0  0  0  0  0  0  0  0  0  0
    3.9828  -14.7506    0.0000 C   0  0  0  0  0  0  0  0  0  0  0  0
    3.7224  -13.2734    0.0000 C   0  0  0  0  0  0  0  0  0  0  0  0
    2.3128  -12.7604    0.0000 C   0  0  0  0  0  0  0  0  0  0  0  0
    2.0524  -11.2832    0.0000 N   0  0  0  0  0  0  0  0  0  0  0  0
    3.2014  -10.3190    0.0000 C   0  0  0  0  0  0  0  0  0  0  0  0
    2.9410   -8.8418    0.0000 C   0  0  0  0  0  0  0  0  0  0  0  0
    4.0900   -7.8776    0.0000 C   0  0  0  0  0  0  0  0  0  0  0  0
    3.8296   -6.4004    0.0000 C   0  0  0  0  0  0  0  0  0  0  0  0
    2.4200   -5.8874    0.0000 C   0  0  0  0  0  0  0  0  0  0  0  0
    2.1595   -4.4101    0.0000 C   0  0  0  0  0  0  0  0  0  0  0  0
    3.3086   -3.4460    0.0000 N   0  0  0  0  0  0  0  0  0  0  0  0
    4.7181   -3.9590    0.0000 C   0  0  0  0  0  0  0  0  0  0  0  0
    4.9786   -5.4362    0.0000 C   0  0  0  0  0  0  0  0  0  0  0  0
    6.3882   -5.9492    0.0000 C   0  0  0  0  0  0  0  0  0  0  0  0
    7.5372   -4.9851    0.0000 C   0  0  0  0  0  0  0  0  0  0  0  0
    7.2768   -3.5078    0.0000 C   0  0  0  0  0  0  0  0  0  0  0  0
    8.4258   -2.5437    0.0000 O   0  0  0  0  0  0  0  0  0  0  0  0
    9.8354   -3.0567    0.0000 C   0  0  0  0  0  0  0  0  0  0  0  0
   10.0958   -4.5339    0.0000 C   0  0  0  0  0  0  0  0  0  0  0  0
   11.5054   -5.0469    0.0000 C   0  0  0  0  0  0  0  0  0  0  0  0
   11.7658   -6.5241    0.0000 C   0  0  0  0  0  0  0  0  0  0  0  0
   12.0263   -8.0014    0.0000 N   0  0  0  0  0  0  0  0  0  0  0  0
   12.6544   -4.0828    0.0000 C   0  0  0  0  0  0  0  0  0  0  0  0
   14.0640   -4.5958    0.0000 C   0  0  0  0  0  0  0  0  0  0  0  0
   15.4735   -5.1088    0.0000 N   0  0  0  0  0  0  0  0  0  0  0  0
   12.3940   -2.6055    0.0000 C   0  0  0  0  0  0  0  0  0  0  0  0
   13.5430   -1.6414    0.0000 C   0  0  0  0  0  0  0  0  0  0  0  0
   14.9526   -2.1544    0.0000 C   0  0  0  0  0  0  0  0  0  0  0  0
   16.1016   -1.1902    0.0000 C   0  0  0  0  0  0  0  0  0  0  0  0
   15.8412    0.2870    0.0000 C   0  0  0  0  0  0  0  0  0  0  0  0
   14.4316    0.8000    0.0000 C   0  0  0  0  0  0  0  0  0  0  0  0
   13.2826   -0.1641    0.0000 C   0  0  0  0  0  0  0  0  0  0  0  0
   10.9844   -2.0925    0.0000 C   0  0  0  0  0  0  0  0  0  0  0  0
    5.8672   -2.9948    0.0000 C   0  0  0  0  0  0  0  0  0  0  0  0
    0.7500   -3.8971    0.0000 P   0  0  0  0  0  0  0  0  0  0  0  0
    0.4895   -5.3743    0.0000 O   0  0  0  0  0  0  0  0  0  0  0  0
    1.5000   -2.5981    0.0000 O   0  0  0  0  0  0  0  0  0  0  0  0
    0.7500   -1.2990    0.0000 C   0  0  0  0  0  0  0  0  0  0  0  0
    1.5000    0.0000    0.0000 C   0  0  0  0  0  0  0  0  0  0  0  0
    0.7500    1.2990    0.0000 C   0  0  0  0  0  0  0  0  0  0  0  0
   -0.7500    1.2990    0.0000 C   0  0  0  0  0  0  0  0  0  0  0  0
   -1.5000    0.0000    0.0000 C   0  0  0  0  0  0  0  0  0  0  0  0
   -0.7500   -1.2990    0.0000 C   0  0  0  0  0  0  0  0  0  0  0  0
   -1.5000   -2.5981    0.0000 C   0  0  0  0  0  0  0  0  0  0  0  0
   -3.0000   -2.5981    0.0000 C   0  0  0  0  0  0  0  0  0  0  0  0
   -3.7500   -3.8971    0.0000 C   0  0  0  0  0  0  0  0  0  0  0  0
   -3.0000   -5.1962    0.0000 C   0  0  0  0  0  0  0  0  0  0  0  0
   -1.5000   -5.1962    0.0000 C   0  0  0  0  0  0  0  0  0  0  0  0
   -0.7500   -3.8971    0.0000 C   0  0  0  0  0  0  0  0  0  0  0  0
    1.2709   -6.8515    0.0000 C   0  0  0  0  0  0  0  0  0  0  0  0
    1.5314   -8.3287    0.0000 C   0  0  0  0  0  0  0  0  0  0  0  0
    4.6110  -10.8320    0.0000 P   0  0  0  0  0  0  0  0  0  0  0  0
    3.8610  -12.1311    0.0000 O   0  0  0  0  0  0  0  0  0  0  0  0
    4.8714   -9.3548    0.0000 O   0  0  0  0  0  0  0  0  0  0  0  0
    6.2810   -8.8418    0.0000 C   0  0  0  0  0  0  0  0  0  0  0  0
    6.5415   -7.3646    0.0000 C   0  0  0  0  0  0  0  0  0  0  0  0
    7.9510   -6.8515    0.0000 C   0  0  0  0  0  0  0  0  0  0  0  0
    9.1001   -7.8157    0.0000 C   0  0  0  0  0  0  0  0  0  0  0  0
    8.8396   -9.2929    0.0000 C   0  0  0  0  0  0  0  0  0  0  0  0
    7.4300   -9.8060    0.0000 C   0  0  0  0  0  0  0  0  0  0  0  0
    7.1696  -11.2832    0.0000 C   0  0  0  0  0  0  0  0  0  0  0  0
    8.3186  -12.2474    0.0000 C   0  0  0  0  0  0  0  0  0  0  0  0
    8.0582  -13.7246    0.0000 C   0  0  0  0  0  0  0  0  0  0  0  0
    6.6486  -14.2376    0.0000 C   0  0  0  0  0  0  0  0  0  0  0  0
    5.4996  -13.2734    0.0000 C   0  0  0  0  0  0  0  0  0  0  0  0
    5.7600  -11.7962    0.0000 C   0  0  0  0  0  0  0  0  0  0  0  0
    1.1638  -13.7246    0.0000 C   0  0  0  0  0  0  0  0  0  0  0  0
   -2.2834  -16.6171    0.0000 C   0  0  0  0  0  0  0  0  0  0  0  0
   -3.6930  -16.1041    0.0000 C   0  0  0  0  0  0  0  0  0  0  0  0
   -4.8420  -17.0683    0.0000 C   0  0  0  0  0  0  0  0  0  0  0  0
   -5.9911  -18.0324    0.0000 N   0  0  0  0  0  0  0  0  0  0  0  0
  1  2  3  0
  2  3  1  0
  3  4  2  0
  4  5  1  0
  5  6  2  0
  6  7  1  0
  7  8  1  0
  8  9  2  0
  9 10  1  0
 10 11  2  0
 11 12  1  0
 12 13  1  0
 13 14  1  0
 14 15  1  0
 15 16  2  0
 16 17  1  0
 17 18  2  0
 18 19  1  0
 19 20  1  0
 20 21  1  0
 21 22  2  0
 22 23  1  0
 23 24  2  0
 24 25  1  0
 25 26  1  0
 26 27  1  0
 27 28  2  0
 28 29  1  0
 29 30  1  0
 30 31  3  0
 29 32  2  0
 32 33  1  0
 33 34  3  0
 32 35  1  0
 35 36  1  0
 36 37  2  0
 37 38  1  0
 38 39  2  0
 39 40  1  0
 40 41  2  0
 35 42  2  0
 25 43  2  0
 19 44  1  0
 44 45  2  0
 44 46  1  0
 46 47  1  0
 47 48  2  0
 48 49  1  0
 49 50  2  0
 50 51  1  0
 51 52  2  0
 52 53  1  0
 53 54  2  0
 54 55  1  0
 55 56  2  0
 56 57  1  0
 57 58  2  0
 18 59  1  0
 59 60  2  0
 14 61  1  0
 61 62  2  0
 61 63  1  0
 63 64  1  0
 64 65  2  0
 65 66  1  0
 66 67  2  0
 67 68  1  0
 68 69  2  0
 69 70  1  0
 70 71  2  0
 71 72  1  0
 72 73  2  0
 73 74  1  0
 74 75  2  0
 12 76  2  0
  6 77  1  0
 77 78  2  0
 78 79  1  0
 79 80  3  0
 78  3  1  0
 76  8  1  0
 60 15  1  0
 75 61  1  0
 43 21  1  0
 58 44  1  0
 69 64  1  0
 75 70  1  0
 42 27  1  0
 52 47  1  0
 58 53  1  0
 41 36  1  0
M  END
>  <Candidate_ID>  (57) 
CAND_R2_057

>  <Candidate_Name>  (57) 
PBD-phenyl

>  <Parent_Seed_ID>  (57) 
TRAIN_020

>  <Parent_Name>  (57) 
PBD

>  <Transformation_Code>  (57) 
phenyl

>  <Design_Family>  (57) 
P-N

>  <Preparation_Type>  (57) 
Additive

>  <Synthesis_Level>  (57) 
B

>  <Parent_Tanimoto_r3>  (57) 
0.7904761904761904

>  <Max_Train_Tanimoto_r3>  (57) 
0.7904761904761904

>  <Risk_Flags>  (57) 
none

$$$$
CAND_R2_058 | PBD-biphenyl
     RDKit          2D

 86 98  0  0  0  0  0  0  0  0999 V2000
   -6.7725  -13.6008    0.0000 N   0  0  0  0  0  0  0  0  0  0  0  0
   -5.3630  -14.1138    0.0000 C   0  0  0  0  0  0  0  0  0  0  0  0
   -3.9534  -14.6269    0.0000 C   0  0  0  0  0  0  0  0  0  0  0  0
   -2.8044  -13.6627    0.0000 C   0  0  0  0  0  0  0  0  0  0  0  0
   -1.3948  -14.1757    0.0000 C   0  0  0  0  0  0  0  0  0  0  0  0
   -1.1344  -15.6529    0.0000 C   0  0  0  0  0  0  0  0  0  0  0  0
    0.2752  -16.1660    0.0000 O   0  0  0  0  0  0  0  0  0  0  0  0
    1.4242  -15.2018    0.0000 C   0  0  0  0  0  0  0  0  0  0  0  0
    2.8338  -15.7148    0.0000 C   0  0  0  0  0  0  0  0  0  0  0  0
    3.9828  -14.7506    0.0000 C   0  0  0  0  0  0  0  0  0  0  0  0
    3.7224  -13.2734    0.0000 C   0  0  0  0  0  0  0  0  0  0  0  0
    2.3128  -12.7604    0.0000 C   0  0  0  0  0  0  0  0  0  0  0  0
    2.0524  -11.2832    0.0000 N   0  0  0  0  0  0  0  0  0  0  0  0
    3.2014  -10.3190    0.0000 C   0  0  0  0  0  0  0  0  0  0  0  0
    2.9410   -8.8418    0.0000 C   0  0  0  0  0  0  0  0  0  0  0  0
    4.0900   -7.8776    0.0000 C   0  0  0  0  0  0  0  0  0  0  0  0
    3.8296   -6.4004    0.0000 C   0  0  0  0  0  0  0  0  0  0  0  0
    2.4200   -5.8874    0.0000 C   0  0  0  0  0  0  0  0  0  0  0  0
    2.1595   -4.4101    0.0000 C   0  0  0  0  0  0  0  0  0  0  0  0
    3.3086   -3.4460    0.0000 N   0  0  0  0  0  0  0  0  0  0  0  0
    4.7181   -3.9590    0.0000 C   0  0  0  0  0  0  0  0  0  0  0  0
    4.9786   -5.4362    0.0000 C   0  0  0  0  0  0  0  0  0  0  0  0
    6.3882   -5.9492    0.0000 C   0  0  0  0  0  0  0  0  0  0  0  0
    7.5372   -4.9851    0.0000 C   0  0  0  0  0  0  0  0  0  0  0  0
    7.2768   -3.5078    0.0000 C   0  0  0  0  0  0  0  0  0  0  0  0
    8.4258   -2.5437    0.0000 O   0  0  0  0  0  0  0  0  0  0  0  0
    9.8354   -3.0567    0.0000 C   0  0  0  0  0  0  0  0  0  0  0  0
   10.0958   -4.5339    0.0000 C   0  0  0  0  0  0  0  0  0  0  0  0
   11.5054   -5.0469    0.0000 C   0  0  0  0  0  0  0  0  0  0  0  0
   11.7658   -6.5241    0.0000 C   0  0  0  0  0  0  0  0  0  0  0  0
   12.0263   -8.0014    0.0000 N   0  0  0  0  0  0  0  0  0  0  0  0
   12.6544   -4.0828    0.0000 C   0  0  0  0  0  0  0  0  0  0  0  0
   14.0640   -4.5958    0.0000 C   0  0  0  0  0  0  0  0  0  0  0  0
   15.4735   -5.1088    0.0000 N   0  0  0  0  0  0  0  0  0  0  0  0
   12.3940   -2.6055    0.0000 C   0  0  0  0  0  0  0  0  0  0  0  0
   13.5430   -1.6414    0.0000 C   0  0  0  0  0  0  0  0  0  0  0  0
   14.9526   -2.1544    0.0000 C   0  0  0  0  0  0  0  0  0  0  0  0
   16.1016   -1.1902    0.0000 C   0  0  0  0  0  0  0  0  0  0  0  0
   15.8412    0.2870    0.0000 C   0  0  0  0  0  0  0  0  0  0  0  0
   16.9902    1.2512    0.0000 C   0  0  0  0  0  0  0  0  0  0  0  0
   18.3998    0.7382    0.0000 C   0  0  0  0  0  0  0  0  0  0  0  0
   19.5488    1.7023    0.0000 C   0  0  0  0  0  0  0  0  0  0  0  0
   19.2884    3.1795    0.0000 C   0  0  0  0  0  0  0  0  0  0  0  0
   17.8788    3.6926    0.0000 C   0  0  0  0  0  0  0  0  0  0  0  0
   16.7298    2.7284    0.0000 C   0  0  0  0  0  0  0  0  0  0  0  0
   14.4316    0.8000    0.0000 C   0  0  0  0  0  0  0  0  0  0  0  0
   13.2826   -0.1641    0.0000 C   0  0  0  0  0  0  0  0  0  0  0  0
   10.9844   -2.0925    0.0000 C   0  0  0  0  0  0  0  0  0  0  0  0
    5.8672   -2.9948    0.0000 C   0  0  0  0  0  0  0  0  0  0  0  0
    0.7500   -3.8971    0.0000 P   0  0  0  0  0  0  0  0  0  0  0  0
    0.4895   -5.3743    0.0000 O   0  0  0  0  0  0  0  0  0  0  0  0
    1.5000   -2.5981    0.0000 O   0  0  0  0  0  0  0  0  0  0  0  0
    0.7500   -1.2990    0.0000 C   0  0  0  0  0  0  0  0  0  0  0  0
    1.5000    0.0000    0.0000 C   0  0  0  0  0  0  0  0  0  0  0  0
    0.7500    1.2990    0.0000 C   0  0  0  0  0  0  0  0  0  0  0  0
   -0.7500    1.2990    0.0000 C   0  0  0  0  0  0  0  0  0  0  0  0
   -1.5000    0.0000    0.0000 C   0  0  0  0  0  0  0  0  0  0  0  0
   -0.7500   -1.2990    0.0000 C   0  0  0  0  0  0  0  0  0  0  0  0
   -1.5000   -2.5981    0.0000 C   0  0  0  0  0  0  0  0  0  0  0  0
   -3.0000   -2.5981    0.0000 C   0  0  0  0  0  0  0  0  0  0  0  0
   -3.7500   -3.8971    0.0000 C   0  0  0  0  0  0  0  0  0  0  0  0
   -3.0000   -5.1962    0.0000 C   0  0  0  0  0  0  0  0  0  0  0  0
   -1.5000   -5.1962    0.0000 C   0  0  0  0  0  0  0  0  0  0  0  0
   -0.7500   -3.8971    0.0000 C   0  0  0  0  0  0  0  0  0  0  0  0
    1.2709   -6.8515    0.0000 C   0  0  0  0  0  0  0  0  0  0  0  0
    1.5314   -8.3287    0.0000 C   0  0  0  0  0  0  0  0  0  0  0  0
    4.6110  -10.8320    0.0000 P   0  0  0  0  0  0  0  0  0  0  0  0
    3.8610  -12.1311    0.0000 O   0  0  0  0  0  0  0  0  0  0  0  0
    4.8714   -9.3548    0.0000 O   0  0  0  0  0  0  0  0  0  0  0  0
    6.2810   -8.8418    0.0000 C   0  0  0  0  0  0  0  0  0  0  0  0
    6.5415   -7.3646    0.0000 C   0  0  0  0  0  0  0  0  0  0  0  0
    7.9510   -6.8515    0.0000 C   0  0  0  0  0  0  0  0  0  0  0  0
    9.1001   -7.8157    0.0000 C   0  0  0  0  0  0  0  0  0  0  0  0
    8.8396   -9.2929    0.0000 C   0  0  0  0  0  0  0  0  0  0  0  0
    7.4300   -9.8060    0.0000 C   0  0  0  0  0  0  0  0  0  0  0  0
    7.1696  -11.2832    0.0000 C   0  0  0  0  0  0  0  0  0  0  0  0
    8.3186  -12.2474    0.0000 C   0  0  0  0  0  0  0  0  0  0  0  0
    8.0582  -13.7246    0.0000 C   0  0  0  0  0  0  0  0  0  0  0  0
    6.6486  -14.2376    0.0000 C   0  0  0  0  0  0  0  0  0  0  0  0
    5.4996  -13.2734    0.0000 C   0  0  0  0  0  0  0  0  0  0  0  0
    5.7600  -11.7962    0.0000 C   0  0  0  0  0  0  0  0  0  0  0  0
    1.1638  -13.7246    0.0000 C   0  0  0  0  0  0  0  0  0  0  0  0
   -2.2834  -16.6171    0.0000 C   0  0  0  0  0  0  0  0  0  0  0  0
   -3.6930  -16.1041    0.0000 C   0  0  0  0  0  0  0  0  0  0  0  0
   -4.8420  -17.0683    0.0000 C   0  0  0  0  0  0  0  0  0  0  0  0
   -5.9911  -18.0324    0.0000 N   0  0  0  0  0  0  0  0  0  0  0  0
  1  2  3  0
  2  3  1  0
  3  4  2  0
  4  5  1  0
  5  6  2  0
  6  7  1  0
  7  8  1  0
  8  9  2  0
  9 10  1  0
 10 11  2  0
 11 12  1  0
 12 13  1  0
 13 14  1  0
 14 15  1  0
 15 16  2  0
 16 17  1  0
 17 18  2  0
 18 19  1  0
 19 20  1  0
 20 21  1  0
 21 22  2  0
 22 23  1  0
 23 24  2  0
 24 25  1  0
 25 26  1  0
 26 27  1  0
 27 28  2  0
 28 29  1  0
 29 30  1  0
 30 31  3  0
 29 32  2  0
 32 33  1  0
 33 34  3  0
 32 35  1  0
 35 36  1  0
 36 37  2  0
 37 38  1  0
 38 39  2  0
 39 40  1  0
 40 41  2  0
 41 42  1  0
 42 43  2  0
 43 44  1  0
 44 45  2  0
 39 46  1  0
 46 47  2  0
 35 48  2  0
 25 49  2  0
 19 50  1  0
 50 51  2  0
 50 52  1  0
 52 53  1  0
 53 54  2  0
 54 55  1  0
 55 56  2  0
 56 57  1  0
 57 58  2  0
 58 59  1  0
 59 60  2  0
 60 61  1  0
 61 62  2  0
 62 63  1  0
 63 64  2  0
 18 65  1  0
 65 66  2  0
 14 67  1  0
 67 68  2  0
 67 69  1  0
 69 70  1  0
 70 71  2  0
 71 72  1  0
 72 73  2  0
 73 74  1  0
 74 75  2  0
 75 76  1  0
 76 77  2  0
 77 78  1  0
 78 79  2  0
 79 80  1  0
 80 81  2  0
 12 82  2  0
  6 83  1  0
 83 84  2  0
 84 85  1  0
 85 86  3  0
 84  3  1  0
 82  8  1  0
 66 15  1  0
 81 67  1  0
 49 21  1  0
 64 50  1  0
 75 70  1  0
 81 76  1  0
 48 27  1  0
 58 53  1  0
 64 59  1  0
 47 36  1  0
 45 40  1  0
M  END
>  <Candidate_ID>  (58) 
CAND_R2_058

>  <Candidate_Name>  (58) 
PBD-biphenyl

>  <Parent_Seed_ID>  (58) 
TRAIN_020

>  <Parent_Name>  (58) 
PBD

>  <Transformation_Code>  (58) 
biphenyl

>  <Design_Family>  (58) 
P-N

>  <Preparation_Type>  (58) 
Additive

>  <Synthesis_Level>  (58) 
B

>  <Parent_Tanimoto_r3>  (58) 
0.7477477477477478

>  <Max_Train_Tanimoto_r3>  (58) 
0.7477477477477478

>  <Risk_Flags>  (58) 
none

$$$$
CAND_R2_059 | PBD-nitrile-to-amide
     RDKit          2D

 75 85  0  0  0  0  0  0  0  0999 V2000
   -6.7725  -13.6008    0.0000 N   0  0  0  0  0  0  0  0  0  0  0  0
   -5.3630  -14.1138    0.0000 C   0  0  0  0  0  0  0  0  0  0  0  0
   -3.9534  -14.6269    0.0000 C   0  0  0  0  0  0  0  0  0  0  0  0
   -2.8044  -13.6627    0.0000 C   0  0  0  0  0  0  0  0  0  0  0  0
   -1.3948  -14.1757    0.0000 C   0  0  0  0  0  0  0  0  0  0  0  0
   -1.1344  -15.6529    0.0000 C   0  0  0  0  0  0  0  0  0  0  0  0
    0.2752  -16.1660    0.0000 O   0  0  0  0  0  0  0  0  0  0  0  0
    1.4242  -15.2018    0.0000 C   0  0  0  0  0  0  0  0  0  0  0  0
    2.8338  -15.7148    0.0000 C   0  0  0  0  0  0  0  0  0  0  0  0
    3.9828  -14.7506    0.0000 C   0  0  0  0  0  0  0  0  0  0  0  0
    3.7224  -13.2734    0.0000 C   0  0  0  0  0  0  0  0  0  0  0  0
    2.3128  -12.7604    0.0000 C   0  0  0  0  0  0  0  0  0  0  0  0
    2.0524  -11.2832    0.0000 N   0  0  0  0  0  0  0  0  0  0  0  0
    3.2014  -10.3190    0.0000 C   0  0  0  0  0  0  0  0  0  0  0  0
    2.9410   -8.8418    0.0000 C   0  0  0  0  0  0  0  0  0  0  0  0
    4.0900   -7.8776    0.0000 C   0  0  0  0  0  0  0  0  0  0  0  0
    3.8296   -6.4004    0.0000 C   0  0  0  0  0  0  0  0  0  0  0  0
    2.4200   -5.8874    0.0000 C   0  0  0  0  0  0  0  0  0  0  0  0
    2.1595   -4.4101    0.0000 C   0  0  0  0  0  0  0  0  0  0  0  0
    3.3086   -3.4460    0.0000 N   0  0  0  0  0  0  0  0  0  0  0  0
    4.7181   -3.9590    0.0000 C   0  0  0  0  0  0  0  0  0  0  0  0
    4.9786   -5.4362    0.0000 C   0  0  0  0  0  0  0  0  0  0  0  0
    6.3882   -5.9492    0.0000 C   0  0  0  0  0  0  0  0  0  0  0  0
    7.5372   -4.9851    0.0000 C   0  0  0  0  0  0  0  0  0  0  0  0
    7.2768   -3.5078    0.0000 C   0  0  0  0  0  0  0  0  0  0  0  0
    8.4258   -2.5437    0.0000 O   0  0  0  0  0  0  0  0  0  0  0  0
    9.8354   -3.0567    0.0000 C   0  0  0  0  0  0  0  0  0  0  0  0
   10.0958   -4.5339    0.0000 C   0  0  0  0  0  0  0  0  0  0  0  0
   11.5054   -5.0469    0.0000 C   0  0  0  0  0  0  0  0  0  0  0  0
   12.6544   -4.0828    0.0000 C   0  0  0  0  0  0  0  0  0  0  0  0
   14.0640   -4.5958    0.0000 C   0  0  0  0  0  0  0  0  0  0  0  0
   15.4735   -5.1088    0.0000 N   0  0  0  0  0  0  0  0  0  0  0  0
   12.3940   -2.6055    0.0000 C   0  0  0  0  0  0  0  0  0  0  0  0
   13.5430   -1.6414    0.0000 C   0  0  0  0  0  0  0  0  0  0  0  0
   13.2826   -0.1641    0.0000 N   0  0  0  0  0  0  0  0  0  0  0  0
   14.9526   -2.1544    0.0000 O   0  0  0  0  0  0  0  0  0  0  0  0
   10.9844   -2.0925    0.0000 C   0  0  0  0  0  0  0  0  0  0  0  0
    5.8672   -2.9948    0.0000 C   0  0  0  0  0  0  0  0  0  0  0  0
    0.7500   -3.8971    0.0000 P   0  0  0  0  0  0  0  0  0  0  0  0
    0.4895   -5.3743    0.0000 O   0  0  0  0  0  0  0  0  0  0  0  0
    1.5000   -2.5981    0.0000 O   0  0  0  0  0  0  0  0  0  0  0  0
    0.7500   -1.2990    0.0000 C   0  0  0  0  0  0  0  0  0  0  0  0
    1.5000    0.0000    0.0000 C   0  0  0  0  0  0  0  0  0  0  0  0
    0.7500    1.2990    0.0000 C   0  0  0  0  0  0  0  0  0  0  0  0
   -0.7500    1.2990    0.0000 C   0  0  0  0  0  0  0  0  0  0  0  0
   -1.5000    0.0000    0.0000 C   0  0  0  0  0  0  0  0  0  0  0  0
   -0.7500   -1.2990    0.0000 C   0  0  0  0  0  0  0  0  0  0  0  0
   -1.5000   -2.5981    0.0000 C   0  0  0  0  0  0  0  0  0  0  0  0
   -3.0000   -2.5981    0.0000 C   0  0  0  0  0  0  0  0  0  0  0  0
   -3.7500   -3.8971    0.0000 C   0  0  0  0  0  0  0  0  0  0  0  0
   -3.0000   -5.1962    0.0000 C   0  0  0  0  0  0  0  0  0  0  0  0
   -1.5000   -5.1962    0.0000 C   0  0  0  0  0  0  0  0  0  0  0  0
   -0.7500   -3.8971    0.0000 C   0  0  0  0  0  0  0  0  0  0  0  0
    1.2709   -6.8515    0.0000 C   0  0  0  0  0  0  0  0  0  0  0  0
    1.5314   -8.3287    0.0000 C   0  0  0  0  0  0  0  0  0  0  0  0
    4.6110  -10.8320    0.0000 P   0  0  0  0  0  0  0  0  0  0  0  0
    3.8610  -12.1311    0.0000 O   0  0  0  0  0  0  0  0  0  0  0  0
    4.8714   -9.3548    0.0000 O   0  0  0  0  0  0  0  0  0  0  0  0
    6.2810   -8.8418    0.0000 C   0  0  0  0  0  0  0  0  0  0  0  0
    6.5415   -7.3646    0.0000 C   0  0  0  0  0  0  0  0  0  0  0  0
    7.9510   -6.8515    0.0000 C   0  0  0  0  0  0  0  0  0  0  0  0
    9.1001   -7.8157    0.0000 C   0  0  0  0  0  0  0  0  0  0  0  0
    8.8396   -9.2929    0.0000 C   0  0  0  0  0  0  0  0  0  0  0  0
    7.4300   -9.8060    0.0000 C   0  0  0  0  0  0  0  0  0  0  0  0
    7.1696  -11.2832    0.0000 C   0  0  0  0  0  0  0  0  0  0  0  0
    8.3186  -12.2474    0.0000 C   0  0  0  0  0  0  0  0  0  0  0  0
    8.0582  -13.7246    0.0000 C   0  0  0  0  0  0  0  0  0  0  0  0
    6.6486  -14.2376    0.0000 C   0  0  0  0  0  0  0  0  0  0  0  0
    5.4996  -13.2734    0.0000 C   0  0  0  0  0  0  0  0  0  0  0  0
    5.7600  -11.7962    0.0000 C   0  0  0  0  0  0  0  0  0  0  0  0
    1.1638  -13.7246    0.0000 C   0  0  0  0  0  0  0  0  0  0  0  0
   -2.2834  -16.6171    0.0000 C   0  0  0  0  0  0  0  0  0  0  0  0
   -3.6930  -16.1041    0.0000 C   0  0  0  0  0  0  0  0  0  0  0  0
   -4.8420  -17.0683    0.0000 C   0  0  0  0  0  0  0  0  0  0  0  0
   -5.9911  -18.0324    0.0000 N   0  0  0  0  0  0  0  0  0  0  0  0
  1  2  3  0
  2  3  1  0
  3  4  2  0
  4  5  1  0
  5  6  2  0
  6  7  1  0
  7  8  1  0
  8  9  2  0
  9 10  1  0
 10 11  2  0
 11 12  1  0
 12 13  1  0
 13 14  1  0
 14 15  1  0
 15 16  2  0
 16 17  1  0
 17 18  2  0
 18 19  1  0
 19 20  1  0
 20 21  1  0
 21 22  2  0
 22 23  1  0
 23 24  2  0
 24 25  1  0
 25 26  1  0
 26 27  1  0
 27 28  2  0
 28 29  1  0
 29 30  2  0
 30 31  1  0
 31 32  3  0
 30 33  1  0
 33 34  1  0
 34 35  1  0
 34 36  2  0
 33 37  2  0
 25 38  2  0
 19 39  1  0
 39 40  2  0
 39 41  1  0
 41 42  1  0
 42 43  2  0
 43 44  1  0
 44 45  2  0
 45 46  1  0
 46 47  2  0
 47 48  1  0
 48 49  2  0
 49 50  1  0
 50 51  2  0
 51 52  1  0
 52 53  2  0
 18 54  1  0
 54 55  2  0
 14 56  1  0
 56 57  2  0
 56 58  1  0
 58 59  1  0
 59 60  2  0
 60 61  1  0
 61 62  2  0
 62 63  1  0
 63 64  2  0
 64 65  1  0
 65 66  2  0
 66 67  1  0
 67 68  2  0
 68 69  1  0
 69 70  2  0
 12 71  2  0
  6 72  1  0
 72 73  2  0
 73 74  1  0
 74 75  3  0
 73  3  1  0
 71  8  1  0
 55 15  1  0
 70 56  1  0
 38 21  1  0
 53 39  1  0
 64 59  1  0
 70 65  1  0
 37 27  1  0
 47 42  1  0
 53 48  1  0
M  END
>  <Candidate_ID>  (59) 
CAND_R2_059

>  <Candidate_Name>  (59) 
PBD-nitrile-to-amide

>  <Parent_Seed_ID>  (59) 
TRAIN_020

>  <Parent_Name>  (59) 
PBD

>  <Transformation_Code>  (59) 
nitrile_to_amide

>  <Design_Family>  (59) 
P-N

>  <Preparation_Type>  (59) 
Additive

>  <Synthesis_Level>  (59) 
B

>  <Parent_Tanimoto_r3>  (59) 
0.8469387755102041

>  <Max_Train_Tanimoto_r3>  (59) 
0.8469387755102041

>  <Risk_Flags>  (59) 
none

$$$$
CAND_R2_060 | PBD-nitrile-to-amide-all
     RDKit          2D

 78 88  0  0  0  0  0  0  0  0999 V2000
   -5.6235  -12.6366    0.0000 N   0  0  0  0  0  0  0  0  0  0  0  0
   -5.3630  -14.1138    0.0000 C   0  0  0  0  0  0  0  0  0  0  0  0
   -6.5120  -15.0780    0.0000 O   0  0  0  0  0  0  0  0  0  0  0  0
   -3.9534  -14.6269    0.0000 C   0  0  0  0  0  0  0  0  0  0  0  0
   -2.8044  -13.6627    0.0000 C   0  0  0  0  0  0  0  0  0  0  0  0
   -1.3948  -14.1757    0.0000 C   0  0  0  0  0  0  0  0  0  0  0  0
   -1.1344  -15.6529    0.0000 C   0  0  0  0  0  0  0  0  0  0  0  0
    0.2752  -16.1660    0.0000 O   0  0  0  0  0  0  0  0  0  0  0  0
    1.4242  -15.2018    0.0000 C   0  0  0  0  0  0  0  0  0  0  0  0
    2.8338  -15.7148    0.0000 C   0  0  0  0  0  0  0  0  0  0  0  0
    3.9828  -14.7506    0.0000 C   0  0  0  0  0  0  0  0  0  0  0  0
    3.7224  -13.2734    0.0000 C   0  0  0  0  0  0  0  0  0  0  0  0
    2.3128  -12.7604    0.0000 C   0  0  0  0  0  0  0  0  0  0  0  0
    2.0524  -11.2832    0.0000 N   0  0  0  0  0  0  0  0  0  0  0  0
    3.2014  -10.3190    0.0000 C   0  0  0  0  0  0  0  0  0  0  0  0
    2.9410   -8.8418    0.0000 C   0  0  0  0  0  0  0  0  0  0  0  0
    4.0900   -7.8776    0.0000 C   0  0  0  0  0  0  0  0  0  0  0  0
    3.8296   -6.4004    0.0000 C   0  0  0  0  0  0  0  0  0  0  0  0
    2.4200   -5.8874    0.0000 C   0  0  0  0  0  0  0  0  0  0  0  0
    2.1595   -4.4101    0.0000 C   0  0  0  0  0  0  0  0  0  0  0  0
    3.3086   -3.4460    0.0000 N   0  0  0  0  0  0  0  0  0  0  0  0
    4.7181   -3.9590    0.0000 C   0  0  0  0  0  0  0  0  0  0  0  0
    4.9786   -5.4362    0.0000 C   0  0  0  0  0  0  0  0  0  0  0  0
    6.3882   -5.9492    0.0000 C   0  0  0  0  0  0  0  0  0  0  0  0
    7.5372   -4.9851    0.0000 C   0  0  0  0  0  0  0  0  0  0  0  0
    7.2768   -3.5078    0.0000 C   0  0  0  0  0  0  0  0  0  0  0  0
    8.4258   -2.5437    0.0000 O   0  0  0  0  0  0  0  0  0  0  0  0
    9.8354   -3.0567    0.0000 C   0  0  0  0  0  0  0  0  0  0  0  0
   10.0958   -4.5339    0.0000 C   0  0  0  0  0  0  0  0  0  0  0  0
   11.5054   -5.0469    0.0000 C   0  0  0  0  0  0  0  0  0  0  0  0
   12.6544   -4.0828    0.0000 C   0  0  0  0  0  0  0  0  0  0  0  0
   14.0640   -4.5958    0.0000 C   0  0  0  0  0  0  0  0  0  0  0  0
   14.3244   -6.0730    0.0000 N   0  0  0  0  0  0  0  0  0  0  0  0
   15.2130   -3.6316    0.0000 O   0  0  0  0  0  0  0  0  0  0  0  0
   12.3940   -2.6055    0.0000 C   0  0  0  0  0  0  0  0  0  0  0  0
   13.5430   -1.6414    0.0000 C   0  0  0  0  0  0  0  0  0  0  0  0
   13.2826   -0.1641    0.0000 N   0  0  0  0  0  0  0  0  0  0  0  0
   14.9526   -2.1544    0.0000 O   0  0  0  0  0  0  0  0  0  0  0  0
   10.9844   -2.0925    0.0000 C   0  0  0  0  0  0  0  0  0  0  0  0
    5.8672   -2.9948    0.0000 C   0  0  0  0  0  0  0  0  0  0  0  0
    0.7500   -3.8971    0.0000 P   0  0  0  0  0  0  0  0  0  0  0  0
    0.4895   -5.3743    0.0000 O   0  0  0  0  0  0  0  0  0  0  0  0
    1.5000   -2.5981    0.0000 O   0  0  0  0  0  0  0  0  0  0  0  0
    0.7500   -1.2990    0.0000 C   0  0  0  0  0  0  0  0  0  0  0  0
    1.5000    0.0000    0.0000 C   0  0  0  0  0  0  0  0  0  0  0  0
    0.7500    1.2990    0.0000 C   0  0  0  0  0  0  0  0  0  0  0  0
   -0.7500    1.2990    0.0000 C   0  0  0  0  0  0  0  0  0  0  0  0
   -1.5000    0.0000    0.0000 C   0  0  0  0  0  0  0  0  0  0  0  0
   -0.7500   -1.2990    0.0000 C   0  0  0  0  0  0  0  0  0  0  0  0
   -1.5000   -2.5981    0.0000 C   0  0  0  0  0  0  0  0  0  0  0  0
   -3.0000   -2.5981    0.0000 C   0  0  0  0  0  0  0  0  0  0  0  0
   -3.7500   -3.8971    0.0000 C   0  0  0  0  0  0  0  0  0  0  0  0
   -3.0000   -5.1962    0.0000 C   0  0  0  0  0  0  0  0  0  0  0  0
   -1.5000   -5.1962    0.0000 C   0  0  0  0  0  0  0  0  0  0  0  0
   -0.7500   -3.8971    0.0000 C   0  0  0  0  0  0  0  0  0  0  0  0
    1.2709   -6.8515    0.0000 C   0  0  0  0  0  0  0  0  0  0  0  0
    1.5314   -8.3287    0.0000 C   0  0  0  0  0  0  0  0  0  0  0  0
    4.6110  -10.8320    0.0000 P   0  0  0  0  0  0  0  0  0  0  0  0
    3.8610  -12.1311    0.0000 O   0  0  0  0  0  0  0  0  0  0  0  0
    4.8714   -9.3548    0.0000 O   0  0  0  0  0  0  0  0  0  0  0  0
    6.2810   -8.8418    0.0000 C   0  0  0  0  0  0  0  0  0  0  0  0
    6.5415   -7.3646    0.0000 C   0  0  0  0  0  0  0  0  0  0  0  0
    7.9510   -6.8515    0.0000 C   0  0  0  0  0  0  0  0  0  0  0  0
    9.1001   -7.8157    0.0000 C   0  0  0  0  0  0  0  0  0  0  0  0
    8.8396   -9.2929    0.0000 C   0  0  0  0  0  0  0  0  0  0  0  0
    7.4300   -9.8060    0.0000 C   0  0  0  0  0  0  0  0  0  0  0  0
    7.1696  -11.2832    0.0000 C   0  0  0  0  0  0  0  0  0  0  0  0
    8.3186  -12.2474    0.0000 C   0  0  0  0  0  0  0  0  0  0  0  0
    8.0582  -13.7246    0.0000 C   0  0  0  0  0  0  0  0  0  0  0  0
    6.6486  -14.2376    0.0000 C   0  0  0  0  0  0  0  0  0  0  0  0
    5.4996  -13.2734    0.0000 C   0  0  0  0  0  0  0  0  0  0  0  0
    5.7600  -11.7962    0.0000 C   0  0  0  0  0  0  0  0  0  0  0  0
    1.1638  -13.7246    0.0000 C   0  0  0  0  0  0  0  0  0  0  0  0
   -2.2834  -16.6171    0.0000 C   0  0  0  0  0  0  0  0  0  0  0  0
   -3.6930  -16.1041    0.0000 C   0  0  0  0  0  0  0  0  0  0  0  0
   -4.8420  -17.0683    0.0000 C   0  0  0  0  0  0  0  0  0  0  0  0
   -4.5816  -18.5455    0.0000 N   0  0  0  0  0  0  0  0  0  0  0  0
   -6.2516  -16.5552    0.0000 O   0  0  0  0  0  0  0  0  0  0  0  0
  1  2  1  0
  2  3  2  0
  2  4  1  0
  4  5  2  0
  5  6  1  0
  6  7  2  0
  7  8  1  0
  8  9  1  0
  9 10  2  0
 10 11  1  0
 11 12  2  0
 12 13  1  0
 13 14  1  0
 14 15  1  0
 15 16  1  0
 16 17  2  0
 17 18  1  0
 18 19  2  0
 19 20  1  0
 20 21  1  0
 21 22  1  0
 22 23  2  0
 23 24  1  0
 24 25  2  0
 25 26  1  0
 26 27  1  0
 27 28  1  0
 28 29  2  0
 29 30  1  0
 30 31  2  0
 31 32  1  0
 32 33  1  0
 32 34  2  0
 31 35  1  0
 35 36  1  0
 36 37  1  0
 36 38  2  0
 35 39  2  0
 26 40  2  0
 20 41  1  0
 41 42  2  0
 41 43  1  0
 43 44  1  0
 44 45  2  0
 45 46  1  0
 46 47  2  0
 47 48  1  0
 48 49  2  0
 49 50  1  0
 50 51  2  0
 51 52  1  0
 52 53  2  0
 53 54  1  0
 54 55  2  0
 19 56  1  0
 56 57  2  0
 15 58  1  0
 58 59  2  0
 58 60  1  0
 60 61  1  0
 61 62  2  0
 62 63  1  0
 63 64  2  0
 64 65  1  0
 65 66  2  0
 66 67  1  0
 67 68  2  0
 68 69  1  0
 69 70  2  0
 70 71  1  0
 71 72  2  0
 13 73  2  0
  7 74  1  0
 74 75  2  0
 75 76  1  0
 76 77  1  0
 76 78  2  0
 75  4  1  0
 73  9  1  0
 57 16  1  0
 72 58  1  0
 40 22  1  0
 55 41  1  0
 66 61  1  0
 72 67  1  0
 39 28  1  0
 49 44  1  0
 55 50  1  0
M  END
>  <Candidate_ID>  (60) 
CAND_R2_060

>  <Candidate_Name>  (60) 
PBD-nitrile-to-amide-all

>  <Parent_Seed_ID>  (60) 
TRAIN_020

>  <Parent_Name>  (60) 
PBD

>  <Transformation_Code>  (60) 
nitrile_to_amide_all

>  <Design_Family>  (60) 
P-N

>  <Preparation_Type>  (60) 
Additive

>  <Synthesis_Level>  (60) 
B

>  <Parent_Tanimoto_r3>  (60) 
0.68

>  <Max_Train_Tanimoto_r3>  (60) 
0.68

>  <Risk_Flags>  (60) 
candidate may be outside strict in-domain threshold

$$$$
CAND_R2_061 | PBD-nitrile-to-acid
     RDKit          2D

 75 85  0  0  0  0  0  0  0  0999 V2000
   -6.7725  -13.6008    0.0000 N   0  0  0  0  0  0  0  0  0  0  0  0
   -5.3630  -14.1138    0.0000 C   0  0  0  0  0  0  0  0  0  0  0  0
   -3.9534  -14.6269    0.0000 C   0  0  0  0  0  0  0  0  0  0  0  0
   -2.8044  -13.6627    0.0000 C   0  0  0  0  0  0  0  0  0  0  0  0
   -1.3948  -14.1757    0.0000 C   0  0  0  0  0  0  0  0  0  0  0  0
   -1.1344  -15.6529    0.0000 C   0  0  0  0  0  0  0  0  0  0  0  0
    0.2752  -16.1660    0.0000 O   0  0  0  0  0  0  0  0  0  0  0  0
    1.4242  -15.2018    0.0000 C   0  0  0  0  0  0  0  0  0  0  0  0
    2.8338  -15.7148    0.0000 C   0  0  0  0  0  0  0  0  0  0  0  0
    3.9828  -14.7506    0.0000 C   0  0  0  0  0  0  0  0  0  0  0  0
    3.7224  -13.2734    0.0000 C   0  0  0  0  0  0  0  0  0  0  0  0
    2.3128  -12.7604    0.0000 C   0  0  0  0  0  0  0  0  0  0  0  0
    2.0524  -11.2832    0.0000 N   0  0  0  0  0  0  0  0  0  0  0  0
    3.2014  -10.3190    0.0000 C   0  0  0  0  0  0  0  0  0  0  0  0
    2.9410   -8.8418    0.0000 C   0  0  0  0  0  0  0  0  0  0  0  0
    4.0900   -7.8776    0.0000 C   0  0  0  0  0  0  0  0  0  0  0  0
    3.8296   -6.4004    0.0000 C   0  0  0  0  0  0  0  0  0  0  0  0
    2.4200   -5.8874    0.0000 C   0  0  0  0  0  0  0  0  0  0  0  0
    2.1595   -4.4101    0.0000 C   0  0  0  0  0  0  0  0  0  0  0  0
    3.3086   -3.4460    0.0000 N   0  0  0  0  0  0  0  0  0  0  0  0
    4.7181   -3.9590    0.0000 C   0  0  0  0  0  0  0  0  0  0  0  0
    4.9786   -5.4362    0.0000 C   0  0  0  0  0  0  0  0  0  0  0  0
    6.3882   -5.9492    0.0000 C   0  0  0  0  0  0  0  0  0  0  0  0
    7.5372   -4.9851    0.0000 C   0  0  0  0  0  0  0  0  0  0  0  0
    7.2768   -3.5078    0.0000 C   0  0  0  0  0  0  0  0  0  0  0  0
    8.4258   -2.5437    0.0000 O   0  0  0  0  0  0  0  0  0  0  0  0
    9.8354   -3.0567    0.0000 C   0  0  0  0  0  0  0  0  0  0  0  0
   10.0958   -4.5339    0.0000 C   0  0  0  0  0  0  0  0  0  0  0  0
   11.5054   -5.0469    0.0000 C   0  0  0  0  0  0  0  0  0  0  0  0
   12.6544   -4.0828    0.0000 C   0  0  0  0  0  0  0  0  0  0  0  0
   14.0640   -4.5958    0.0000 C   0  0  0  0  0  0  0  0  0  0  0  0
   15.2130   -3.6316    0.0000 O   0  0  0  0  0  0  0  0  0  0  0  0
   14.3244   -6.0730    0.0000 O   0  0  0  0  0  0  0  0  0  0  0  0
   12.3940   -2.6055    0.0000 C   0  0  0  0  0  0  0  0  0  0  0  0
   13.5430   -1.6414    0.0000 C   0  0  0  0  0  0  0  0  0  0  0  0
   14.6921   -0.6772    0.0000 N   0  0  0  0  0  0  0  0  0  0  0  0
   10.9844   -2.0925    0.0000 C   0  0  0  0  0  0  0  0  0  0  0  0
    5.8672   -2.9948    0.0000 C   0  0  0  0  0  0  0  0  0  0  0  0
    0.7500   -3.8971    0.0000 P   0  0  0  0  0  0  0  0  0  0  0  0
    0.4895   -5.3743    0.0000 O   0  0  0  0  0  0  0  0  0  0  0  0
    1.5000   -2.5981    0.0000 O   0  0  0  0  0  0  0  0  0  0  0  0
    0.7500   -1.2990    0.0000 C   0  0  0  0  0  0  0  0  0  0  0  0
    1.5000    0.0000    0.0000 C   0  0  0  0  0  0  0  0  0  0  0  0
    0.7500    1.2990    0.0000 C   0  0  0  0  0  0  0  0  0  0  0  0
   -0.7500    1.2990    0.0000 C   0  0  0  0  0  0  0  0  0  0  0  0
   -1.5000    0.0000    0.0000 C   0  0  0  0  0  0  0  0  0  0  0  0
   -0.7500   -1.2990    0.0000 C   0  0  0  0  0  0  0  0  0  0  0  0
   -1.5000   -2.5981    0.0000 C   0  0  0  0  0  0  0  0  0  0  0  0
   -3.0000   -2.5981    0.0000 C   0  0  0  0  0  0  0  0  0  0  0  0
   -3.7500   -3.8971    0.0000 C   0  0  0  0  0  0  0  0  0  0  0  0
   -3.0000   -5.1962    0.0000 C   0  0  0  0  0  0  0  0  0  0  0  0
   -1.5000   -5.1962    0.0000 C   0  0  0  0  0  0  0  0  0  0  0  0
   -0.7500   -3.8971    0.0000 C   0  0  0  0  0  0  0  0  0  0  0  0
    1.2709   -6.8515    0.0000 C   0  0  0  0  0  0  0  0  0  0  0  0
    1.5314   -8.3287    0.0000 C   0  0  0  0  0  0  0  0  0  0  0  0
    4.6110  -10.8320    0.0000 P   0  0  0  0  0  0  0  0  0  0  0  0
    3.8610  -12.1311    0.0000 O   0  0  0  0  0  0  0  0  0  0  0  0
    4.8714   -9.3548    0.0000 O   0  0  0  0  0  0  0  0  0  0  0  0
    6.2810   -8.8418    0.0000 C   0  0  0  0  0  0  0  0  0  0  0  0
    6.5415   -7.3646    0.0000 C   0  0  0  0  0  0  0  0  0  0  0  0
    7.9510   -6.8515    0.0000 C   0  0  0  0  0  0  0  0  0  0  0  0
    9.1001   -7.8157    0.0000 C   0  0  0  0  0  0  0  0  0  0  0  0
    8.8396   -9.2929    0.0000 C   0  0  0  0  0  0  0  0  0  0  0  0
    7.4300   -9.8060    0.0000 C   0  0  0  0  0  0  0  0  0  0  0  0
    7.1696  -11.2832    0.0000 C   0  0  0  0  0  0  0  0  0  0  0  0
    8.3186  -12.2474    0.0000 C   0  0  0  0  0  0  0  0  0  0  0  0
    8.0582  -13.7246    0.0000 C   0  0  0  0  0  0  0  0  0  0  0  0
    6.6486  -14.2376    0.0000 C   0  0  0  0  0  0  0  0  0  0  0  0
    5.4996  -13.2734    0.0000 C   0  0  0  0  0  0  0  0  0  0  0  0
    5.7600  -11.7962    0.0000 C   0  0  0  0  0  0  0  0  0  0  0  0
    1.1638  -13.7246    0.0000 C   0  0  0  0  0  0  0  0  0  0  0  0
   -2.2834  -16.6171    0.0000 C   0  0  0  0  0  0  0  0  0  0  0  0
   -3.6930  -16.1041    0.0000 C   0  0  0  0  0  0  0  0  0  0  0  0
   -4.8420  -17.0683    0.0000 C   0  0  0  0  0  0  0  0  0  0  0  0
   -5.9911  -18.0324    0.0000 N   0  0  0  0  0  0  0  0  0  0  0  0
  1  2  3  0
  2  3  1  0
  3  4  2  0
  4  5  1  0
  5  6  2  0
  6  7  1  0
  7  8  1  0
  8  9  2  0
  9 10  1  0
 10 11  2  0
 11 12  1  0
 12 13  1  0
 13 14  1  0
 14 15  1  0
 15 16  2  0
 16 17  1  0
 17 18  2  0
 18 19  1  0
 19 20  1  0
 20 21  1  0
 21 22  2  0
 22 23  1  0
 23 24  2  0
 24 25  1  0
 25 26  1  0
 26 27  1  0
 27 28  2  0
 28 29  1  0
 29 30  2  0
 30 31  1  0
 31 32  2  0
 31 33  1  0
 30 34  1  0
 34 35  1  0
 35 36  3  0
 34 37  2  0
 25 38  2  0
 19 39  1  0
 39 40  2  0
 39 41  1  0
 41 42  1  0
 42 43  2  0
 43 44  1  0
 44 45  2  0
 45 46  1  0
 46 47  2  0
 47 48  1  0
 48 49  2  0
 49 50  1  0
 50 51  2  0
 51 52  1  0
 52 53  2  0
 18 54  1  0
 54 55  2  0
 14 56  1  0
 56 57  2  0
 56 58  1  0
 58 59  1  0
 59 60  2  0
 60 61  1  0
 61 62  2  0
 62 63  1  0
 63 64  2  0
 64 65  1  0
 65 66  2  0
 66 67  1  0
 67 68  2  0
 68 69  1  0
 69 70  2  0
 12 71  2  0
  6 72  1  0
 72 73  2  0
 73 74  1  0
 74 75  3  0
 73  3  1  0
 71  8  1  0
 55 15  1  0
 70 56  1  0
 38 21  1  0
 53 39  1  0
 64 59  1  0
 70 65  1  0
 37 27  1  0
 47 42  1  0
 53 48  1  0
M  END
>  <Candidate_ID>  (61) 
CAND_R2_061

>  <Candidate_Name>  (61) 
PBD-nitrile-to-acid

>  <Parent_Seed_ID>  (61) 
TRAIN_020

>  <Parent_Name>  (61) 
PBD

>  <Transformation_Code>  (61) 
nitrile_to_acid

>  <Design_Family>  (61) 
P-N

>  <Preparation_Type>  (61) 
Additive

>  <Synthesis_Level>  (61) 
B

>  <Parent_Tanimoto_r3>  (61) 
0.8645833333333334

>  <Max_Train_Tanimoto_r3>  (61) 
0.8645833333333334

>  <Risk_Flags>  (61) 
none

$$$$
CAND_R2_062 | PBD-nitrile-to-acid-2
     RDKit          2D

 75 85  0  0  0  0  0  0  0  0999 V2000
   -6.7725  -13.6008    0.0000 N   0  0  0  0  0  0  0  0  0  0  0  0
   -5.3630  -14.1138    0.0000 C   0  0  0  0  0  0  0  0  0  0  0  0
   -3.9534  -14.6269    0.0000 C   0  0  0  0  0  0  0  0  0  0  0  0
   -2.8044  -13.6627    0.0000 C   0  0  0  0  0  0  0  0  0  0  0  0
   -1.3948  -14.1757    0.0000 C   0  0  0  0  0  0  0  0  0  0  0  0
   -1.1344  -15.6529    0.0000 C   0  0  0  0  0  0  0  0  0  0  0  0
    0.2752  -16.1660    0.0000 O   0  0  0  0  0  0  0  0  0  0  0  0
    1.4242  -15.2018    0.0000 C   0  0  0  0  0  0  0  0  0  0  0  0
    2.8338  -15.7148    0.0000 C   0  0  0  0  0  0  0  0  0  0  0  0
    3.9828  -14.7506    0.0000 C   0  0  0  0  0  0  0  0  0  0  0  0
    3.7224  -13.2734    0.0000 C   0  0  0  0  0  0  0  0  0  0  0  0
    2.3128  -12.7604    0.0000 C   0  0  0  0  0  0  0  0  0  0  0  0
    2.0524  -11.2832    0.0000 N   0  0  0  0  0  0  0  0  0  0  0  0
    3.2014  -10.3190    0.0000 C   0  0  0  0  0  0  0  0  0  0  0  0
    2.9410   -8.8418    0.0000 C   0  0  0  0  0  0  0  0  0  0  0  0
    4.0900   -7.8776    0.0000 C   0  0  0  0  0  0  0  0  0  0  0  0
    3.8296   -6.4004    0.0000 C   0  0  0  0  0  0  0  0  0  0  0  0
    2.4200   -5.8874    0.0000 C   0  0  0  0  0  0  0  0  0  0  0  0
    2.1595   -4.4101    0.0000 C   0  0  0  0  0  0  0  0  0  0  0  0
    3.3086   -3.4460    0.0000 N   0  0  0  0  0  0  0  0  0  0  0  0
    4.7181   -3.9590    0.0000 C   0  0  0  0  0  0  0  0  0  0  0  0
    4.9786   -5.4362    0.0000 C   0  0  0  0  0  0  0  0  0  0  0  0
    6.3882   -5.9492    0.0000 C   0  0  0  0  0  0  0  0  0  0  0  0
    7.5372   -4.9851    0.0000 C   0  0  0  0  0  0  0  0  0  0  0  0
    7.2768   -3.5078    0.0000 C   0  0  0  0  0  0  0  0  0  0  0  0
    8.4258   -2.5437    0.0000 O   0  0  0  0  0  0  0  0  0  0  0  0
    9.8354   -3.0567    0.0000 C   0  0  0  0  0  0  0  0  0  0  0  0
   10.0958   -4.5339    0.0000 C   0  0  0  0  0  0  0  0  0  0  0  0
   11.5054   -5.0469    0.0000 C   0  0  0  0  0  0  0  0  0  0  0  0
   12.6544   -4.0828    0.0000 C   0  0  0  0  0  0  0  0  0  0  0  0
   14.0640   -4.5958    0.0000 C   0  0  0  0  0  0  0  0  0  0  0  0
   15.4735   -5.1088    0.0000 N   0  0  0  0  0  0  0  0  0  0  0  0
   12.3940   -2.6055    0.0000 C   0  0  0  0  0  0  0  0  0  0  0  0
   13.5430   -1.6414    0.0000 C   0  0  0  0  0  0  0  0  0  0  0  0
   14.9526   -2.1544    0.0000 O   0  0  0  0  0  0  0  0  0  0  0  0
   13.2826   -0.1641    0.0000 O   0  0  0  0  0  0  0  0  0  0  0  0
   10.9844   -2.0925    0.0000 C   0  0  0  0  0  0  0  0  0  0  0  0
    5.8672   -2.9948    0.0000 C   0  0  0  0  0  0  0  0  0  0  0  0
    0.7500   -3.8971    0.0000 P   0  0  0  0  0  0  0  0  0  0  0  0
    0.4895   -5.3743    0.0000 O   0  0  0  0  0  0  0  0  0  0  0  0
    1.5000   -2.5981    0.0000 O   0  0  0  0  0  0  0  0  0  0  0  0
    0.7500   -1.2990    0.0000 C   0  0  0  0  0  0  0  0  0  0  0  0
    1.5000    0.0000    0.0000 C   0  0  0  0  0  0  0  0  0  0  0  0
    0.7500    1.2990    0.0000 C   0  0  0  0  0  0  0  0  0  0  0  0
   -0.7500    1.2990    0.0000 C   0  0  0  0  0  0  0  0  0  0  0  0
   -1.5000    0.0000    0.0000 C   0  0  0  0  0  0  0  0  0  0  0  0
   -0.7500   -1.2990    0.0000 C   0  0  0  0  0  0  0  0  0  0  0  0
   -1.5000   -2.5981    0.0000 C   0  0  0  0  0  0  0  0  0  0  0  0
   -3.0000   -2.5981    0.0000 C   0  0  0  0  0  0  0  0  0  0  0  0
   -3.7500   -3.8971    0.0000 C   0  0  0  0  0  0  0  0  0  0  0  0
   -3.0000   -5.1962    0.0000 C   0  0  0  0  0  0  0  0  0  0  0  0
   -1.5000   -5.1962    0.0000 C   0  0  0  0  0  0  0  0  0  0  0  0
   -0.7500   -3.8971    0.0000 C   0  0  0  0  0  0  0  0  0  0  0  0
    1.2709   -6.8515    0.0000 C   0  0  0  0  0  0  0  0  0  0  0  0
    1.5314   -8.3287    0.0000 C   0  0  0  0  0  0  0  0  0  0  0  0
    4.6110  -10.8320    0.0000 P   0  0  0  0  0  0  0  0  0  0  0  0
    3.8610  -12.1311    0.0000 O   0  0  0  0  0  0  0  0  0  0  0  0
    4.8714   -9.3548    0.0000 O   0  0  0  0  0  0  0  0  0  0  0  0
    6.2810   -8.8418    0.0000 C   0  0  0  0  0  0  0  0  0  0  0  0
    6.5415   -7.3646    0.0000 C   0  0  0  0  0  0  0  0  0  0  0  0
    7.9510   -6.8515    0.0000 C   0  0  0  0  0  0  0  0  0  0  0  0
    9.1001   -7.8157    0.0000 C   0  0  0  0  0  0  0  0  0  0  0  0
    8.8396   -9.2929    0.0000 C   0  0  0  0  0  0  0  0  0  0  0  0
    7.4300   -9.8060    0.0000 C   0  0  0  0  0  0  0  0  0  0  0  0
    7.1696  -11.2832    0.0000 C   0  0  0  0  0  0  0  0  0  0  0  0
    8.3186  -12.2474    0.0000 C   0  0  0  0  0  0  0  0  0  0  0  0
    8.0582  -13.7246    0.0000 C   0  0  0  0  0  0  0  0  0  0  0  0
    6.6486  -14.2376    0.0000 C   0  0  0  0  0  0  0  0  0  0  0  0
    5.4996  -13.2734    0.0000 C   0  0  0  0  0  0  0  0  0  0  0  0
    5.7600  -11.7962    0.0000 C   0  0  0  0  0  0  0  0  0  0  0  0
    1.1638  -13.7246    0.0000 C   0  0  0  0  0  0  0  0  0  0  0  0
   -2.2834  -16.6171    0.0000 C   0  0  0  0  0  0  0  0  0  0  0  0
   -3.6930  -16.1041    0.0000 C   0  0  0  0  0  0  0  0  0  0  0  0
   -4.8420  -17.0683    0.0000 C   0  0  0  0  0  0  0  0  0  0  0  0
   -5.9911  -18.0324    0.0000 N   0  0  0  0  0  0  0  0  0  0  0  0
  1  2  3  0
  2  3  1  0
  3  4  2  0
  4  5  1  0
  5  6  2  0
  6  7  1  0
  7  8  1  0
  8  9  2  0
  9 10  1  0
 10 11  2  0
 11 12  1  0
 12 13  1  0
 13 14  1  0
 14 15  1  0
 15 16  2  0
 16 17  1  0
 17 18  2  0
 18 19  1  0
 19 20  1  0
 20 21  1  0
 21 22  2  0
 22 23  1  0
 23 24  2  0
 24 25  1  0
 25 26  1  0
 26 27  1  0
 27 28  2  0
 28 29  1  0
 29 30  2  0
 30 31  1  0
 31 32  3  0
 30 33  1  0
 33 34  1  0
 34 35  2  0
 34 36  1  0
 33 37  2  0
 25 38  2  0
 19 39  1  0
 39 40  2  0
 39 41  1  0
 41 42  1  0
 42 43  2  0
 43 44  1  0
 44 45  2  0
 45 46  1  0
 46 47  2  0
 47 48  1  0
 48 49  2  0
 49 50  1  0
 50 51  2  0
 51 52  1  0
 52 53  2  0
 18 54  1  0
 54 55  2  0
 14 56  1  0
 56 57  2  0
 56 58  1  0
 58 59  1  0
 59 60  2  0
 60 61  1  0
 61 62  2  0
 62 63  1  0
 63 64  2  0
 64 65  1  0
 65 66  2  0
 66 67  1  0
 67 68  2  0
 68 69  1  0
 69 70  2  0
 12 71  2  0
  6 72  1  0
 72 73  2  0
 73 74  1  0
 74 75  3  0
 73  3  1  0
 71  8  1  0
 55 15  1  0
 70 56  1  0
 38 21  1  0
 53 39  1  0
 64 59  1  0
 70 65  1  0
 37 27  1  0
 47 42  1  0
 53 48  1  0
M  END
>  <Candidate_ID>  (62) 
CAND_R2_062

>  <Candidate_Name>  (62) 
PBD-nitrile-to-acid-2

>  <Parent_Seed_ID>  (62) 
TRAIN_020

>  <Parent_Name>  (62) 
PBD

>  <Transformation_Code>  (62) 
nitrile_to_acid

>  <Design_Family>  (62) 
P-N

>  <Preparation_Type>  (62) 
Additive

>  <Synthesis_Level>  (62) 
B

>  <Parent_Tanimoto_r3>  (62) 
0.8556701030927835

>  <Max_Train_Tanimoto_r3>  (62) 
0.8556701030927835

>  <Risk_Flags>  (62) 
none

$$$$
CAND_R2_063 | PBD-nitrile-to-acid-all
     RDKit          2D

 78 88  0  0  0  0  0  0  0  0999 V2000
   -6.5120  -15.0780    0.0000 O   0  0  0  0  0  0  0  0  0  0  0  0
   -5.3630  -14.1138    0.0000 C   0  0  0  0  0  0  0  0  0  0  0  0
   -5.6235  -12.6366    0.0000 O   0  0  0  0  0  0  0  0  0  0  0  0
   -3.9534  -14.6269    0.0000 C   0  0  0  0  0  0  0  0  0  0  0  0
   -2.8044  -13.6627    0.0000 C   0  0  0  0  0  0  0  0  0  0  0  0
   -1.3948  -14.1757    0.0000 C   0  0  0  0  0  0  0  0  0  0  0  0
   -1.1344  -15.6529    0.0000 C   0  0  0  0  0  0  0  0  0  0  0  0
    0.2752  -16.1660    0.0000 O   0  0  0  0  0  0  0  0  0  0  0  0
    1.4242  -15.2018    0.0000 C   0  0  0  0  0  0  0  0  0  0  0  0
    2.8338  -15.7148    0.0000 C   0  0  0  0  0  0  0  0  0  0  0  0
    3.9828  -14.7506    0.0000 C   0  0  0  0  0  0  0  0  0  0  0  0
    3.7224  -13.2734    0.0000 C   0  0  0  0  0  0  0  0  0  0  0  0
    2.3128  -12.7604    0.0000 C   0  0  0  0  0  0  0  0  0  0  0  0
    2.0524  -11.2832    0.0000 N   0  0  0  0  0  0  0  0  0  0  0  0
    3.2014  -10.3190    0.0000 C   0  0  0  0  0  0  0  0  0  0  0  0
    2.9410   -8.8418    0.0000 C   0  0  0  0  0  0  0  0  0  0  0  0
    4.0900   -7.8776    0.0000 C   0  0  0  0  0  0  0  0  0  0  0  0
    3.8296   -6.4004    0.0000 C   0  0  0  0  0  0  0  0  0  0  0  0
    2.4200   -5.8874    0.0000 C   0  0  0  0  0  0  0  0  0  0  0  0
    2.1595   -4.4101    0.0000 C   0  0  0  0  0  0  0  0  0  0  0  0
    3.3086   -3.4460    0.0000 N   0  0  0  0  0  0  0  0  0  0  0  0
    4.7181   -3.9590    0.0000 C   0  0  0  0  0  0  0  0  0  0  0  0
    4.9786   -5.4362    0.0000 C   0  0  0  0  0  0  0  0  0  0  0  0
    6.3882   -5.9492    0.0000 C   0  0  0  0  0  0  0  0  0  0  0  0
    7.5372   -4.9851    0.0000 C   0  0  0  0  0  0  0  0  0  0  0  0
    7.2768   -3.5078    0.0000 C   0  0  0  0  0  0  0  0  0  0  0  0
    8.4258   -2.5437    0.0000 O   0  0  0  0  0  0  0  0  0  0  0  0
    9.8354   -3.0567    0.0000 C   0  0  0  0  0  0  0  0  0  0  0  0
   10.0958   -4.5339    0.0000 C   0  0  0  0  0  0  0  0  0  0  0  0
   11.5054   -5.0469    0.0000 C   0  0  0  0  0  0  0  0  0  0  0  0
   12.6544   -4.0828    0.0000 C   0  0  0  0  0  0  0  0  0  0  0  0
   14.0640   -4.5958    0.0000 C   0  0  0  0  0  0  0  0  0  0  0  0
   15.2130   -3.6316    0.0000 O   0  0  0  0  0  0  0  0  0  0  0  0
   14.3244   -6.0730    0.0000 O   0  0  0  0  0  0  0  0  0  0  0  0
   12.3940   -2.6055    0.0000 C   0  0  0  0  0  0  0  0  0  0  0  0
   13.5430   -1.6414    0.0000 C   0  0  0  0  0  0  0  0  0  0  0  0
   14.9526   -2.1544    0.0000 O   0  0  0  0  0  0  0  0  0  0  0  0
   13.2826   -0.1641    0.0000 O   0  0  0  0  0  0  0  0  0  0  0  0
   10.9844   -2.0925    0.0000 C   0  0  0  0  0  0  0  0  0  0  0  0
    5.8672   -2.9948    0.0000 C   0  0  0  0  0  0  0  0  0  0  0  0
    0.7500   -3.8971    0.0000 P   0  0  0  0  0  0  0  0  0  0  0  0
    0.4895   -5.3743    0.0000 O   0  0  0  0  0  0  0  0  0  0  0  0
    1.5000   -2.5981    0.0000 O   0  0  0  0  0  0  0  0  0  0  0  0
    0.7500   -1.2990    0.0000 C   0  0  0  0  0  0  0  0  0  0  0  0
    1.5000    0.0000    0.0000 C   0  0  0  0  0  0  0  0  0  0  0  0
    0.7500    1.2990    0.0000 C   0  0  0  0  0  0  0  0  0  0  0  0
   -0.7500    1.2990    0.0000 C   0  0  0  0  0  0  0  0  0  0  0  0
   -1.5000    0.0000    0.0000 C   0  0  0  0  0  0  0  0  0  0  0  0
   -0.7500   -1.2990    0.0000 C   0  0  0  0  0  0  0  0  0  0  0  0
   -1.5000   -2.5981    0.0000 C   0  0  0  0  0  0  0  0  0  0  0  0
   -3.0000   -2.5981    0.0000 C   0  0  0  0  0  0  0  0  0  0  0  0
   -3.7500   -3.8971    0.0000 C   0  0  0  0  0  0  0  0  0  0  0  0
   -3.0000   -5.1962    0.0000 C   0  0  0  0  0  0  0  0  0  0  0  0
   -1.5000   -5.1962    0.0000 C   0  0  0  0  0  0  0  0  0  0  0  0
   -0.7500   -3.8971    0.0000 C   0  0  0  0  0  0  0  0  0  0  0  0
    1.2709   -6.8515    0.0000 C   0  0  0  0  0  0  0  0  0  0  0  0
    1.5314   -8.3287    0.0000 C   0  0  0  0  0  0  0  0  0  0  0  0
    4.6110  -10.8320    0.0000 P   0  0  0  0  0  0  0  0  0  0  0  0
    3.8610  -12.1311    0.0000 O   0  0  0  0  0  0  0  0  0  0  0  0
    4.8714   -9.3548    0.0000 O   0  0  0  0  0  0  0  0  0  0  0  0
    6.2810   -8.8418    0.0000 C   0  0  0  0  0  0  0  0  0  0  0  0
    6.5415   -7.3646    0.0000 C   0  0  0  0  0  0  0  0  0  0  0  0
    7.9510   -6.8515    0.0000 C   0  0  0  0  0  0  0  0  0  0  0  0
    9.1001   -7.8157    0.0000 C   0  0  0  0  0  0  0  0  0  0  0  0
    8.8396   -9.2929    0.0000 C   0  0  0  0  0  0  0  0  0  0  0  0
    7.4300   -9.8060    0.0000 C   0  0  0  0  0  0  0  0  0  0  0  0
    7.1696  -11.2832    0.0000 C   0  0  0  0  0  0  0  0  0  0  0  0
    8.3186  -12.2474    0.0000 C   0  0  0  0  0  0  0  0  0  0  0  0
    8.0582  -13.7246    0.0000 C   0  0  0  0  0  0  0  0  0  0  0  0
    6.6486  -14.2376    0.0000 C   0  0  0  0  0  0  0  0  0  0  0  0
    5.4996  -13.2734    0.0000 C   0  0  0  0  0  0  0  0  0  0  0  0
    5.7600  -11.7962    0.0000 C   0  0  0  0  0  0  0  0  0  0  0  0
    1.1638  -13.7246    0.0000 C   0  0  0  0  0  0  0  0  0  0  0  0
   -2.2834  -16.6171    0.0000 C   0  0  0  0  0  0  0  0  0  0  0  0
   -3.6930  -16.1041    0.0000 C   0  0  0  0  0  0  0  0  0  0  0  0
   -4.8420  -17.0683    0.0000 C   0  0  0  0  0  0  0  0  0  0  0  0
   -6.2516  -16.5552    0.0000 O   0  0  0  0  0  0  0  0  0  0  0  0
   -4.5816  -18.5455    0.0000 O   0  0  0  0  0  0  0  0  0  0  0  0
  1  2  2  0
  2  3  1  0
  2  4  1  0
  4  5  2  0
  5  6  1  0
  6  7  2  0
  7  8  1  0
  8  9  1  0
  9 10  2  0
 10 11  1  0
 11 12  2  0
 12 13  1  0
 13 14  1  0
 14 15  1  0
 15 16  1  0
 16 17  2  0
 17 18  1  0
 18 19  2  0
 19 20  1  0
 20 21  1  0
 21 22  1  0
 22 23  2  0
 23 24  1  0
 24 25  2  0
 25 26  1  0
 26 27  1  0
 27 28  1  0
 28 29  2  0
 29 30  1  0
 30 31  2  0
 31 32  1  0
 32 33  2  0
 32 34  1  0
 31 35  1  0
 35 36  1  0
 36 37  2  0
 36 38  1  0
 35 39  2  0
 26 40  2  0
 20 41  1  0
 41 42  2  0
 41 43  1  0
 43 44  1  0
 44 45  2  0
 45 46  1  0
 46 47  2  0
 47 48  1  0
 48 49  2  0
 49 50  1  0
 50 51  2  0
 51 52  1  0
 52 53  2  0
 53 54  1  0
 54 55  2  0
 19 56  1  0
 56 57  2  0
 15 58  1  0
 58 59  2  0
 58 60  1  0
 60 61  1  0
 61 62  2  0
 62 63  1  0
 63 64  2  0
 64 65  1  0
 65 66  2  0
 66 67  1  0
 67 68  2  0
 68 69  1  0
 69 70  2  0
 70 71  1  0
 71 72  2  0
 13 73  2  0
  7 74  1  0
 74 75  2  0
 75 76  1  0
 76 77  2  0
 76 78  1  0
 75  4  1  0
 73  9  1  0
 57 16  1  0
 72 58  1  0
 40 22  1  0
 55 41  1  0
 66 61  1  0
 72 67  1  0
 39 28  1  0
 49 44  1  0
 55 50  1  0
M  END
>  <Candidate_ID>  (63) 
CAND_R2_063

>  <Candidate_Name>  (63) 
PBD-nitrile-to-acid-all

>  <Parent_Seed_ID>  (63) 
TRAIN_020

>  <Parent_Name>  (63) 
PBD

>  <Transformation_Code>  (63) 
nitrile_to_acid_all

>  <Design_Family>  (63) 
P-N

>  <Preparation_Type>  (63) 
Additive

>  <Synthesis_Level>  (63) 
B

>  <Parent_Tanimoto_r3>  (63) 
0.6868686868686869

>  <Max_Train_Tanimoto_r3>  (63) 
0.6868686868686869

>  <Risk_Flags>  (63) 
candidate may be outside strict in-domain threshold

$$$$
CAND_R2_064 | PBD-nitrile-to-aminomethyl
     RDKit          2D

 74 84  0  0  0  0  0  0  0  0999 V2000
   -6.7725  -13.6008    0.0000 N   0  0  0  0  0  0  0  0  0  0  0  0
   -5.3630  -14.1138    0.0000 C   0  0  0  0  0  0  0  0  0  0  0  0
   -3.9534  -14.6269    0.0000 C   0  0  0  0  0  0  0  0  0  0  0  0
   -2.8044  -13.6627    0.0000 C   0  0  0  0  0  0  0  0  0  0  0  0
   -1.3948  -14.1757    0.0000 C   0  0  0  0  0  0  0  0  0  0  0  0
   -1.1344  -15.6529    0.0000 C   0  0  0  0  0  0  0  0  0  0  0  0
    0.2752  -16.1660    0.0000 O   0  0  0  0  0  0  0  0  0  0  0  0
    1.4242  -15.2018    0.0000 C   0  0  0  0  0  0  0  0  0  0  0  0
    2.8338  -15.7148    0.0000 C   0  0  0  0  0  0  0  0  0  0  0  0
    3.9828  -14.7506    0.0000 C   0  0  0  0  0  0  0  0  0  0  0  0
    3.7224  -13.2734    0.0000 C   0  0  0  0  0  0  0  0  0  0  0  0
    2.3128  -12.7604    0.0000 C   0  0  0  0  0  0  0  0  0  0  0  0
    2.0524  -11.2832    0.0000 N   0  0  0  0  0  0  0  0  0  0  0  0
    3.2014  -10.3190    0.0000 C   0  0  0  0  0  0  0  0  0  0  0  0
    2.9410   -8.8418    0.0000 C   0  0  0  0  0  0  0  0  0  0  0  0
    4.0900   -7.8776    0.0000 C   0  0  0  0  0  0  0  0  0  0  0  0
    3.8296   -6.4004    0.0000 C   0  0  0  0  0  0  0  0  0  0  0  0
    2.4200   -5.8874    0.0000 C   0  0  0  0  0  0  0  0  0  0  0  0
    2.1595   -4.4101    0.0000 C   0  0  0  0  0  0  0  0  0  0  0  0
    3.3086   -3.4460    0.0000 N   0  0  0  0  0  0  0  0  0  0  0  0
    4.7181   -3.9590    0.0000 C   0  0  0  0  0  0  0  0  0  0  0  0
    4.9786   -5.4362    0.0000 C   0  0  0  0  0  0  0  0  0  0  0  0
    6.3882   -5.9492    0.0000 C   0  0  0  0  0  0  0  0  0  0  0  0
    7.5372   -4.9851    0.0000 C   0  0  0  0  0  0  0  0  0  0  0  0
    7.2768   -3.5078    0.0000 C   0  0  0  0  0  0  0  0  0  0  0  0
    8.4258   -2.5437    0.0000 O   0  0  0  0  0  0  0  0  0  0  0  0
    9.8354   -3.0567    0.0000 C   0  0  0  0  0  0  0  0  0  0  0  0
   10.0958   -4.5339    0.0000 C   0  0  0  0  0  0  0  0  0  0  0  0
   11.5054   -5.0469    0.0000 C   0  0  0  0  0  0  0  0  0  0  0  0
   12.6544   -4.0828    0.0000 C   0  0  0  0  0  0  0  0  0  0  0  0
   14.0640   -4.5958    0.0000 C   0  0  0  0  0  0  0  0  0  0  0  0
   14.3244   -6.0730    0.0000 N   0  0  0  0  0  0  0  0  0  0  0  0
   12.3940   -2.6055    0.0000 C   0  0  0  0  0  0  0  0  0  0  0  0
   13.5430   -1.6414    0.0000 C   0  0  0  0  0  0  0  0  0  0  0  0
   14.6921   -0.6772    0.0000 N   0  0  0  0  0  0  0  0  0  0  0  0
   10.9844   -2.0925    0.0000 C   0  0  0  0  0  0  0  0  0  0  0  0
    5.8672   -2.9948    0.0000 C   0  0  0  0  0  0  0  0  0  0  0  0
    0.7500   -3.8971    0.0000 P   0  0  0  0  0  0  0  0  0  0  0  0
    0.4895   -5.3743    0.0000 O   0  0  0  0  0  0  0  0  0  0  0  0
    1.5000   -2.5981    0.0000 O   0  0  0  0  0  0  0  0  0  0  0  0
    0.7500   -1.2990    0.0000 C   0  0  0  0  0  0  0  0  0  0  0  0
    1.5000    0.0000    0.0000 C   0  0  0  0  0  0  0  0  0  0  0  0
    0.7500    1.2990    0.0000 C   0  0  0  0  0  0  0  0  0  0  0  0
   -0.7500    1.2990    0.0000 C   0  0  0  0  0  0  0  0  0  0  0  0
   -1.5000    0.0000    0.0000 C   0  0  0  0  0  0  0  0  0  0  0  0
   -0.7500   -1.2990    0.0000 C   0  0  0  0  0  0  0  0  0  0  0  0
   -1.5000   -2.5981    0.0000 C   0  0  0  0  0  0  0  0  0  0  0  0
   -3.0000   -2.5981    0.0000 C   0  0  0  0  0  0  0  0  0  0  0  0
   -3.7500   -3.8971    0.0000 C   0  0  0  0  0  0  0  0  0  0  0  0
   -3.0000   -5.1962    0.0000 C   0  0  0  0  0  0  0  0  0  0  0  0
   -1.5000   -5.1962    0.0000 C   0  0  0  0  0  0  0  0  0  0  0  0
   -0.7500   -3.8971    0.0000 C   0  0  0  0  0  0  0  0  0  0  0  0
    1.2709   -6.8515    0.0000 C   0  0  0  0  0  0  0  0  0  0  0  0
    1.5314   -8.3287    0.0000 C   0  0  0  0  0  0  0  0  0  0  0  0
    4.6110  -10.8320    0.0000 P   0  0  0  0  0  0  0  0  0  0  0  0
    3.8610  -12.1311    0.0000 O   0  0  0  0  0  0  0  0  0  0  0  0
    4.8714   -9.3548    0.0000 O   0  0  0  0  0  0  0  0  0  0  0  0
    6.2810   -8.8418    0.0000 C   0  0  0  0  0  0  0  0  0  0  0  0
    6.5415   -7.3646    0.0000 C   0  0  0  0  0  0  0  0  0  0  0  0
    7.9510   -6.8515    0.0000 C   0  0  0  0  0  0  0  0  0  0  0  0
    9.1001   -7.8157    0.0000 C   0  0  0  0  0  0  0  0  0  0  0  0
    8.8396   -9.2929    0.0000 C   0  0  0  0  0  0  0  0  0  0  0  0
    7.4300   -9.8060    0.0000 C   0  0  0  0  0  0  0  0  0  0  0  0
    7.1696  -11.2832    0.0000 C   0  0  0  0  0  0  0  0  0  0  0  0
    8.3186  -12.2474    0.0000 C   0  0  0  0  0  0  0  0  0  0  0  0
    8.0582  -13.7246    0.0000 C   0  0  0  0  0  0  0  0  0  0  0  0
    6.6486  -14.2376    0.0000 C   0  0  0  0  0  0  0  0  0  0  0  0
    5.4996  -13.2734    0.0000 C   0  0  0  0  0  0  0  0  0  0  0  0
    5.7600  -11.7962    0.0000 C   0  0  0  0  0  0  0  0  0  0  0  0
    1.1638  -13.7246    0.0000 C   0  0  0  0  0  0  0  0  0  0  0  0
   -2.2834  -16.6171    0.0000 C   0  0  0  0  0  0  0  0  0  0  0  0
   -3.6930  -16.1041    0.0000 C   0  0  0  0  0  0  0  0  0  0  0  0
   -4.8420  -17.0683    0.0000 C   0  0  0  0  0  0  0  0  0  0  0  0
   -5.9911  -18.0324    0.0000 N   0  0  0  0  0  0  0  0  0  0  0  0
  1  2  3  0
  2  3  1  0
  3  4  2  0
  4  5  1  0
  5  6  2  0
  6  7  1  0
  7  8  1  0
  8  9  2  0
  9 10  1  0
 10 11  2  0
 11 12  1  0
 12 13  1  0
 13 14  1  0
 14 15  1  0
 15 16  2  0
 16 17  1  0
 17 18  2  0
 18 19  1  0
 19 20  1  0
 20 21  1  0
 21 22  2  0
 22 23  1  0
 23 24  2  0
 24 25  1  0
 25 26  1  0
 26 27  1  0
 27 28  2  0
 28 29  1  0
 29 30  2  0
 30 31  1  0
 31 32  1  0
 30 33  1  0
 33 34  1  0
 34 35  3  0
 33 36  2  0
 25 37  2  0
 19 38  1  0
 38 39  2  0
 38 40  1  0
 40 41  1  0
 41 42  2  0
 42 43  1  0
 43 44  2  0
 44 45  1  0
 45 46  2  0
 46 47  1  0
 47 48  2  0
 48 49  1  0
 49 50  2  0
 50 51  1  0
 51 52  2  0
 18 53  1  0
 53 54  2  0
 14 55  1  0
 55 56  2  0
 55 57  1  0
 57 58  1  0
 58 59  2  0
 59 60  1  0
 60 61  2  0
 61 62  1  0
 62 63  2  0
 63 64  1  0
 64 65  2  0
 65 66  1  0
 66 67  2  0
 67 68  1  0
 68 69  2  0
 12 70  2  0
  6 71  1  0
 71 72  2  0
 72 73  1  0
 73 74  3  0
 72  3  1  0
 70  8  1  0
 54 15  1  0
 69 55  1  0
 37 21  1  0
 52 38  1  0
 63 58  1  0
 69 64  1  0
 36 27  1  0
 46 41  1  0
 52 47  1  0
M  END
>  <Candidate_ID>  (64) 
CAND_R2_064

>  <Candidate_Name>  (64) 
PBD-nitrile-to-aminomethyl

>  <Parent_Seed_ID>  (64) 
TRAIN_020

>  <Parent_Name>  (64) 
PBD

>  <Transformation_Code>  (64) 
nitrile_to_aminomethyl

>  <Design_Family>  (64) 
P-N

>  <Preparation_Type>  (64) 
Co-curing

>  <Synthesis_Level>  (64) 
B

>  <Parent_Tanimoto_r3>  (64) 
0.8556701030927835

>  <Max_Train_Tanimoto_r3>  (64) 
0.8556701030927835

>  <Risk_Flags>  (64) 
none

$$$$
CAND_R2_065 | PBD-nitrile-to-aminomethyl-2
     RDKit          2D

 74 84  0  0  0  0  0  0  0  0999 V2000
   -6.7725  -13.6008    0.0000 N   0  0  0  0  0  0  0  0  0  0  0  0
   -5.3630  -14.1138    0.0000 C   0  0  0  0  0  0  0  0  0  0  0  0
   -3.9534  -14.6269    0.0000 C   0  0  0  0  0  0  0  0  0  0  0  0
   -2.8044  -13.6627    0.0000 C   0  0  0  0  0  0  0  0  0  0  0  0
   -1.3948  -14.1757    0.0000 C   0  0  0  0  0  0  0  0  0  0  0  0
   -1.1344  -15.6529    0.0000 C   0  0  0  0  0  0  0  0  0  0  0  0
    0.2752  -16.1660    0.0000 O   0  0  0  0  0  0  0  0  0  0  0  0
    1.4242  -15.2018    0.0000 C   0  0  0  0  0  0  0  0  0  0  0  0
    2.8338  -15.7148    0.0000 C   0  0  0  0  0  0  0  0  0  0  0  0
    3.9828  -14.7506    0.0000 C   0  0  0  0  0  0  0  0  0  0  0  0
    3.7224  -13.2734    0.0000 C   0  0  0  0  0  0  0  0  0  0  0  0
    2.3128  -12.7604    0.0000 C   0  0  0  0  0  0  0  0  0  0  0  0
    2.0524  -11.2832    0.0000 N   0  0  0  0  0  0  0  0  0  0  0  0
    3.2014  -10.3190    0.0000 C   0  0  0  0  0  0  0  0  0  0  0  0
    2.9410   -8.8418    0.0000 C   0  0  0  0  0  0  0  0  0  0  0  0
    4.0900   -7.8776    0.0000 C   0  0  0  0  0  0  0  0  0  0  0  0
    3.8296   -6.4004    0.0000 C   0  0  0  0  0  0  0  0  0  0  0  0
    2.4200   -5.8874    0.0000 C   0  0  0  0  0  0  0  0  0  0  0  0
    2.1595   -4.4101    0.0000 C   0  0  0  0  0  0  0  0  0  0  0  0
    3.3086   -3.4460    0.0000 N   0  0  0  0  0  0  0  0  0  0  0  0
    4.7181   -3.9590    0.0000 C   0  0  0  0  0  0  0  0  0  0  0  0
    4.9786   -5.4362    0.0000 C   0  0  0  0  0  0  0  0  0  0  0  0
    6.3882   -5.9492    0.0000 C   0  0  0  0  0  0  0  0  0  0  0  0
    7.5372   -4.9851    0.0000 C   0  0  0  0  0  0  0  0  0  0  0  0
    7.2768   -3.5078    0.0000 C   0  0  0  0  0  0  0  0  0  0  0  0
    8.4258   -2.5437    0.0000 O   0  0  0  0  0  0  0  0  0  0  0  0
    9.8354   -3.0567    0.0000 C   0  0  0  0  0  0  0  0  0  0  0  0
   10.0958   -4.5339    0.0000 C   0  0  0  0  0  0  0  0  0  0  0  0
   11.5054   -5.0469    0.0000 C   0  0  0  0  0  0  0  0  0  0  0  0
   12.6544   -4.0828    0.0000 C   0  0  0  0  0  0  0  0  0  0  0  0
   14.0640   -4.5958    0.0000 C   0  0  0  0  0  0  0  0  0  0  0  0
   15.4735   -5.1088    0.0000 N   0  0  0  0  0  0  0  0  0  0  0  0
   12.3940   -2.6055    0.0000 C   0  0  0  0  0  0  0  0  0  0  0  0
   13.5430   -1.6414    0.0000 C   0  0  0  0  0  0  0  0  0  0  0  0
   13.2826   -0.1641    0.0000 N   0  0  0  0  0  0  0  0  0  0  0  0
   10.9844   -2.0925    0.0000 C   0  0  0  0  0  0  0  0  0  0  0  0
    5.8672   -2.9948    0.0000 C   0  0  0  0  0  0  0  0  0  0  0  0
    0.7500   -3.8971    0.0000 P   0  0  0  0  0  0  0  0  0  0  0  0
    0.4895   -5.3743    0.0000 O   0  0  0  0  0  0  0  0  0  0  0  0
    1.5000   -2.5981    0.0000 O   0  0  0  0  0  0  0  0  0  0  0  0
    0.7500   -1.2990    0.0000 C   0  0  0  0  0  0  0  0  0  0  0  0
    1.5000    0.0000    0.0000 C   0  0  0  0  0  0  0  0  0  0  0  0
    0.7500    1.2990    0.0000 C   0  0  0  0  0  0  0  0  0  0  0  0
   -0.7500    1.2990    0.0000 C   0  0  0  0  0  0  0  0  0  0  0  0
   -1.5000    0.0000    0.0000 C   0  0  0  0  0  0  0  0  0  0  0  0
   -0.7500   -1.2990    0.0000 C   0  0  0  0  0  0  0  0  0  0  0  0
   -1.5000   -2.5981    0.0000 C   0  0  0  0  0  0  0  0  0  0  0  0
   -3.0000   -2.5981    0.0000 C   0  0  0  0  0  0  0  0  0  0  0  0
   -3.7500   -3.8971    0.0000 C   0  0  0  0  0  0  0  0  0  0  0  0
   -3.0000   -5.1962    0.0000 C   0  0  0  0  0  0  0  0  0  0  0  0
   -1.5000   -5.1962    0.0000 C   0  0  0  0  0  0  0  0  0  0  0  0
   -0.7500   -3.8971    0.0000 C   0  0  0  0  0  0  0  0  0  0  0  0
    1.2709   -6.8515    0.0000 C   0  0  0  0  0  0  0  0  0  0  0  0
    1.5314   -8.3287    0.0000 C   0  0  0  0  0  0  0  0  0  0  0  0
    4.6110  -10.8320    0.0000 P   0  0  0  0  0  0  0  0  0  0  0  0
    3.8610  -12.1311    0.0000 O   0  0  0  0  0  0  0  0  0  0  0  0
    4.8714   -9.3548    0.0000 O   0  0  0  0  0  0  0  0  0  0  0  0
    6.2810   -8.8418    0.0000 C   0  0  0  0  0  0  0  0  0  0  0  0
    6.5415   -7.3646    0.0000 C   0  0  0  0  0  0  0  0  0  0  0  0
    7.9510   -6.8515    0.0000 C   0  0  0  0  0  0  0  0  0  0  0  0
    9.1001   -7.8157    0.0000 C   0  0  0  0  0  0  0  0  0  0  0  0
    8.8396   -9.2929    0.0000 C   0  0  0  0  0  0  0  0  0  0  0  0
    7.4300   -9.8060    0.0000 C   0  0  0  0  0  0  0  0  0  0  0  0
    7.1696  -11.2832    0.0000 C   0  0  0  0  0  0  0  0  0  0  0  0
    8.3186  -12.2474    0.0000 C   0  0  0  0  0  0  0  0  0  0  0  0
    8.0582  -13.7246    0.0000 C   0  0  0  0  0  0  0  0  0  0  0  0
    6.6486  -14.2376    0.0000 C   0  0  0  0  0  0  0  0  0  0  0  0
    5.4996  -13.2734    0.0000 C   0  0  0  0  0  0  0  0  0  0  0  0
    5.7600  -11.7962    0.0000 C   0  0  0  0  0  0  0  0  0  0  0  0
    1.1638  -13.7246    0.0000 C   0  0  0  0  0  0  0  0  0  0  0  0
   -2.2834  -16.6171    0.0000 C   0  0  0  0  0  0  0  0  0  0  0  0
   -3.6930  -16.1041    0.0000 C   0  0  0  0  0  0  0  0  0  0  0  0
   -4.8420  -17.0683    0.0000 C   0  0  0  0  0  0  0  0  0  0  0  0
   -5.9911  -18.0324    0.0000 N   0  0  0  0  0  0  0  0  0  0  0  0
  1  2  3  0
  2  3  1  0
  3  4  2  0
  4  5  1  0
  5  6  2  0
  6  7  1  0
  7  8  1  0
  8  9  2  0
  9 10  1  0
 10 11  2  0
 11 12  1  0
 12 13  1  0
 13 14  1  0
 14 15  1  0
 15 16  2  0
 16 17  1  0
 17 18  2  0
 18 19  1  0
 19 20  1  0
 20 21  1  0
 21 22  2  0
 22 23  1  0
 23 24  2  0
 24 25  1  0
 25 26  1  0
 26 27  1  0
 27 28  2  0
 28 29  1  0
 29 30  2  0
 30 31  1  0
 31 32  3  0
 30 33  1  0
 33 34  1  0
 34 35  1  0
 33 36  2  0
 25 37  2  0
 19 38  1  0
 38 39  2  0
 38 40  1  0
 40 41  1  0
 41 42  2  0
 42 43  1  0
 43 44  2  0
 44 45  1  0
 45 46  2  0
 46 47  1  0
 47 48  2  0
 48 49  1  0
 49 50  2  0
 50 51  1  0
 51 52  2  0
 18 53  1  0
 53 54  2  0
 14 55  1  0
 55 56  2  0
 55 57  1  0
 57 58  1  0
 58 59  2  0
 59 60  1  0
 60 61  2  0
 61 62  1  0
 62 63  2  0
 63 64  1  0
 64 65  2  0
 65 66  1  0
 66 67  2  0
 67 68  1  0
 68 69  2  0
 12 70  2  0
  6 71  1  0
 71 72  2  0
 72 73  1  0
 73 74  3  0
 72  3  1  0
 70  8  1  0
 54 15  1  0
 69 55  1  0
 37 21  1  0
 52 38  1  0
 63 58  1  0
 69 64  1  0
 36 27  1  0
 46 41  1  0
 52 47  1  0
M  END
>  <Candidate_ID>  (65) 
CAND_R2_065

>  <Candidate_Name>  (65) 
PBD-nitrile-to-aminomethyl-2

>  <Parent_Seed_ID>  (65) 
TRAIN_020

>  <Parent_Name>  (65) 
PBD

>  <Transformation_Code>  (65) 
nitrile_to_aminomethyl

>  <Design_Family>  (65) 
P-N

>  <Preparation_Type>  (65) 
Co-curing

>  <Synthesis_Level>  (65) 
B

>  <Parent_Tanimoto_r3>  (65) 
0.8556701030927835

>  <Max_Train_Tanimoto_r3>  (65) 
0.8556701030927835

>  <Risk_Flags>  (65) 
none

$$$$
CAND_R2_066 | PBD-nitrile-to-aminomethyl-all
     RDKit          2D

 74 84  0  0  0  0  0  0  0  0999 V2000
   -5.6235  -12.6366    0.0000 N   0  0  0  0  0  0  0  0  0  0  0  0
   -5.3630  -14.1138    0.0000 C   0  0  0  0  0  0  0  0  0  0  0  0
   -3.9534  -14.6269    0.0000 C   0  0  0  0  0  0  0  0  0  0  0  0
   -2.8044  -13.6627    0.0000 C   0  0  0  0  0  0  0  0  0  0  0  0
   -1.3948  -14.1757    0.0000 C   0  0  0  0  0  0  0  0  0  0  0  0
   -1.1344  -15.6529    0.0000 C   0  0  0  0  0  0  0  0  0  0  0  0
    0.2752  -16.1660    0.0000 O   0  0  0  0  0  0  0  0  0  0  0  0
    1.4242  -15.2018    0.0000 C   0  0  0  0  0  0  0  0  0  0  0  0
    2.8338  -15.7148    0.0000 C   0  0  0  0  0  0  0  0  0  0  0  0
    3.9828  -14.7506    0.0000 C   0  0  0  0  0  0  0  0  0  0  0  0
    3.7224  -13.2734    0.0000 C   0  0  0  0  0  0  0  0  0  0  0  0
    2.3128  -12.7604    0.0000 C   0  0  0  0  0  0  0  0  0  0  0  0
    2.0524  -11.2832    0.0000 N   0  0  0  0  0  0  0  0  0  0  0  0
    3.2014  -10.3190    0.0000 C   0  0  0  0  0  0  0  0  0  0  0  0
    2.9410   -8.8418    0.0000 C   0  0  0  0  0  0  0  0  0  0  0  0
    4.0900   -7.8776    0.0000 C   0  0  0  0  0  0  0  0  0  0  0  0
    3.8296   -6.4004    0.0000 C   0  0  0  0  0  0  0  0  0  0  0  0
    2.4200   -5.8874    0.0000 C   0  0  0  0  0  0  0  0  0  0  0  0
    2.1595   -4.4101    0.0000 C   0  0  0  0  0  0  0  0  0  0  0  0
    3.3086   -3.4460    0.0000 N   0  0  0  0  0  0  0  0  0  0  0  0
    4.7181   -3.9590    0.0000 C   0  0  0  0  0  0  0  0  0  0  0  0
    4.9786   -5.4362    0.0000 C   0  0  0  0  0  0  0  0  0  0  0  0
    6.3882   -5.9492    0.0000 C   0  0  0  0  0  0  0  0  0  0  0  0
    7.5372   -4.9851    0.0000 C   0  0  0  0  0  0  0  0  0  0  0  0
    7.2768   -3.5078    0.0000 C   0  0  0  0  0  0  0  0  0  0  0  0
    8.4258   -2.5437    0.0000 O   0  0  0  0  0  0  0  0  0  0  0  0
    9.8354   -3.0567    0.0000 C   0  0  0  0  0  0  0  0  0  0  0  0
   10.0958   -4.5339    0.0000 C   0  0  0  0  0  0  0  0  0  0  0  0
   11.5054   -5.0469    0.0000 C   0  0  0  0  0  0  0  0  0  0  0  0
   12.6544   -4.0828    0.0000 C   0  0  0  0  0  0  0  0  0  0  0  0
   14.0640   -4.5958    0.0000 C   0  0  0  0  0  0  0  0  0  0  0  0
   14.3244   -6.0730    0.0000 N   0  0  0  0  0  0  0  0  0  0  0  0
   12.3940   -2.6055    0.0000 C   0  0  0  0  0  0  0  0  0  0  0  0
   13.5430   -1.6414    0.0000 C   0  0  0  0  0  0  0  0  0  0  0  0
   13.2826   -0.1641    0.0000 N   0  0  0  0  0  0  0  0  0  0  0  0
   10.9844   -2.0925    0.0000 C   0  0  0  0  0  0  0  0  0  0  0  0
    5.8672   -2.9948    0.0000 C   0  0  0  0  0  0  0  0  0  0  0  0
    0.7500   -3.8971    0.0000 P   0  0  0  0  0  0  0  0  0  0  0  0
    0.4895   -5.3743    0.0000 O   0  0  0  0  0  0  0  0  0  0  0  0
    1.5000   -2.5981    0.0000 O   0  0  0  0  0  0  0  0  0  0  0  0
    0.7500   -1.2990    0.0000 C   0  0  0  0  0  0  0  0  0  0  0  0
    1.5000    0.0000    0.0000 C   0  0  0  0  0  0  0  0  0  0  0  0
    0.7500    1.2990    0.0000 C   0  0  0  0  0  0  0  0  0  0  0  0
   -0.7500    1.2990    0.0000 C   0  0  0  0  0  0  0  0  0  0  0  0
   -1.5000    0.0000    0.0000 C   0  0  0  0  0  0  0  0  0  0  0  0
   -0.7500   -1.2990    0.0000 C   0  0  0  0  0  0  0  0  0  0  0  0
   -1.5000   -2.5981    0.0000 C   0  0  0  0  0  0  0  0  0  0  0  0
   -3.0000   -2.5981    0.0000 C   0  0  0  0  0  0  0  0  0  0  0  0
   -3.7500   -3.8971    0.0000 C   0  0  0  0  0  0  0  0  0  0  0  0
   -3.0000   -5.1962    0.0000 C   0  0  0  0  0  0  0  0  0  0  0  0
   -1.5000   -5.1962    0.0000 C   0  0  0  0  0  0  0  0  0  0  0  0
   -0.7500   -3.8971    0.0000 C   0  0  0  0  0  0  0  0  0  0  0  0
    1.2709   -6.8515    0.0000 C   0  0  0  0  0  0  0  0  0  0  0  0
    1.5314   -8.3287    0.0000 C   0  0  0  0  0  0  0  0  0  0  0  0
    4.6110  -10.8320    0.0000 P   0  0  0  0  0  0  0  0  0  0  0  0
    3.8610  -12.1311    0.0000 O   0  0  0  0  0  0  0  0  0  0  0  0
    4.8714   -9.3548    0.0000 O   0  0  0  0  0  0  0  0  0  0  0  0
    6.2810   -8.8418    0.0000 C   0  0  0  0  0  0  0  0  0  0  0  0
    6.5415   -7.3646    0.0000 C   0  0  0  0  0  0  0  0  0  0  0  0
    7.9510   -6.8515    0.0000 C   0  0  0  0  0  0  0  0  0  0  0  0
    9.1001   -7.8157    0.0000 C   0  0  0  0  0  0  0  0  0  0  0  0
    8.8396   -9.2929    0.0000 C   0  0  0  0  0  0  0  0  0  0  0  0
    7.4300   -9.8060    0.0000 C   0  0  0  0  0  0  0  0  0  0  0  0
    7.1696  -11.2832    0.0000 C   0  0  0  0  0  0  0  0  0  0  0  0
    8.3186  -12.2474    0.0000 C   0  0  0  0  0  0  0  0  0  0  0  0
    8.0582  -13.7246    0.0000 C   0  0  0  0  0  0  0  0  0  0  0  0
    6.6486  -14.2376    0.0000 C   0  0  0  0  0  0  0  0  0  0  0  0
    5.4996  -13.2734    0.0000 C   0  0  0  0  0  0  0  0  0  0  0  0
    5.7600  -11.7962    0.0000 C   0  0  0  0  0  0  0  0  0  0  0  0
    1.1638  -13.7246    0.0000 C   0  0  0  0  0  0  0  0  0  0  0  0
   -2.2834  -16.6171    0.0000 C   0  0  0  0  0  0  0  0  0  0  0  0
   -3.6930  -16.1041    0.0000 C   0  0  0  0  0  0  0  0  0  0  0  0
   -4.8420  -17.0683    0.0000 C   0  0  0  0  0  0  0  0  0  0  0  0
   -4.5816  -18.5455    0.0000 N   0  0  0  0  0  0  0  0  0  0  0  0
  1  2  1  0
  2  3  1  0
  3  4  2  0
  4  5  1  0
  5  6  2  0
  6  7  1  0
  7  8  1  0
  8  9  2  0
  9 10  1  0
 10 11  2  0
 11 12  1  0
 12 13  1  0
 13 14  1  0
 14 15  1  0
 15 16  2  0
 16 17  1  0
 17 18  2  0
 18 19  1  0
 19 20  1  0
 20 21  1  0
 21 22  2  0
 22 23  1  0
 23 24  2  0
 24 25  1  0
 25 26  1  0
 26 27  1  0
 27 28  2  0
 28 29  1  0
 29 30  2  0
 30 31  1  0
 31 32  1  0
 30 33  1  0
 33 34  1  0
 34 35  1  0
 33 36  2  0
 25 37  2  0
 19 38  1  0
 38 39  2  0
 38 40  1  0
 40 41  1  0
 41 42  2  0
 42 43  1  0
 43 44  2  0
 44 45  1  0
 45 46  2  0
 46 47  1  0
 47 48  2  0
 48 49  1  0
 49 50  2  0
 50 51  1  0
 51 52  2  0
 18 53  1  0
 53 54  2  0
 14 55  1  0
 55 56  2  0
 55 57  1  0
 57 58  1  0
 58 59  2  0
 59 60  1  0
 60 61  2  0
 61 62  1  0
 62 63  2  0
 63 64  1  0
 64 65  2  0
 65 66  1  0
 66 67  2  0
 67 68  1  0
 68 69  2  0
 12 70  2  0
  6 71  1  0
 71 72  2  0
 72 73  1  0
 73 74  1  0
 72  3  1  0
 70  8  1  0
 54 15  1  0
 69 55  1  0
 37 21  1  0
 52 38  1  0
 63 58  1  0
 69 64  1  0
 36 27  1  0
 46 41  1  0
 52 47  1  0
M  END
>  <Candidate_ID>  (66) 
CAND_R2_066

>  <Candidate_Name>  (66) 
PBD-nitrile-to-aminomethyl-all

>  <Parent_Seed_ID>  (66) 
TRAIN_020

>  <Parent_Name>  (66) 
PBD

>  <Transformation_Code>  (66) 
nitrile_to_aminomethyl_all

>  <Design_Family>  (66) 
P-N

>  <Preparation_Type>  (66) 
Co-curing

>  <Synthesis_Level>  (66) 
B

>  <Parent_Tanimoto_r3>  (66) 
0.6868686868686869

>  <Max_Train_Tanimoto_r3>  (66) 
0.6868686868686869

>  <Risk_Flags>  (66) 
candidate may be outside strict in-domain threshold

$$$$
CAND_R2_067 | PBD-NH-methyl
     RDKit          2D

 75 85  0  0  0  0  0  0  0  0999 V2000
    2.3128  -12.7604    0.0000 C   0  0  0  0  0  0  0  0  0  0  0  0
    2.0524  -11.2832    0.0000 N   0  0  0  0  0  0  0  0  0  0  0  0
    0.6428  -10.7701    0.0000 C   0  0  0  0  0  0  0  0  0  0  0  0
    0.3824   -9.2929    0.0000 C   0  0  0  0  0  0  0  0  0  0  0  0
   -1.0272   -8.7799    0.0000 C   0  0  0  0  0  0  0  0  0  0  0  0
   -2.1763   -9.7441    0.0000 C   0  0  0  0  0  0  0  0  0  0  0  0
   -1.9158  -11.2213    0.0000 C   0  0  0  0  0  0  0  0  0  0  0  0
   -3.0648  -12.1855    0.0000 O   0  0  0  0  0  0  0  0  0  0  0  0
   -4.4744  -11.6724    0.0000 C   0  0  0  0  0  0  0  0  0  0  0  0
   -4.7349  -10.1952    0.0000 C   0  0  0  0  0  0  0  0  0  0  0  0
   -6.1444   -9.6822    0.0000 C   0  0  0  0  0  0  0  0  0  0  0  0
   -7.2935  -10.6464    0.0000 C   0  0  0  0  0  0  0  0  0  0  0  0
   -8.7030  -10.1334    0.0000 C   0  0  0  0  0  0  0  0  0  0  0  0
  -10.1125   -9.6203    0.0000 N   0  0  0  0  0  0  0  0  0  0  0  0
   -7.0330  -12.1236    0.0000 C   0  0  0  0  0  0  0  0  0  0  0  0
   -8.1821  -13.0878    0.0000 C   0  0  0  0  0  0  0  0  0  0  0  0
   -9.3311  -14.0520    0.0000 N   0  0  0  0  0  0  0  0  0  0  0  0
   -5.6235  -12.6366    0.0000 C   0  0  0  0  0  0  0  0  0  0  0  0
   -0.5062  -11.7343    0.0000 C   0  0  0  0  0  0  0  0  0  0  0  0
    3.2014  -10.3190    0.0000 C   0  0  0  0  0  0  0  0  0  0  0  0
    2.9410   -8.8418    0.0000 C   0  0  0  0  0  0  0  0  0  0  0  0
    4.0900   -7.8776    0.0000 C   0  0  0  0  0  0  0  0  0  0  0  0
    3.8296   -6.4004    0.0000 C   0  0  0  0  0  0  0  0  0  0  0  0
    2.4200   -5.8874    0.0000 C   0  0  0  0  0  0  0  0  0  0  0  0
    2.1595   -4.4101    0.0000 C   0  0  0  0  0  0  0  0  0  0  0  0
    3.3086   -3.4460    0.0000 N   0  0  0  0  0  0  0  0  0  0  0  0
    4.7181   -3.9590    0.0000 C   0  0  0  0  0  0  0  0  0  0  0  0
    4.9786   -5.4362    0.0000 C   0  0  0  0  0  0  0  0  0  0  0  0
    6.3882   -5.9492    0.0000 C   0  0  0  0  0  0  0  0  0  0  0  0
    7.5372   -4.9851    0.0000 C   0  0  0  0  0  0  0  0  0  0  0  0
    7.2768   -3.5078    0.0000 C   0  0  0  0  0  0  0  0  0  0  0  0
    8.4258   -2.5437    0.0000 O   0  0  0  0  0  0  0  0  0  0  0  0
    9.8354   -3.0567    0.0000 C   0  0  0  0  0  0  0  0  0  0  0  0
   10.0958   -4.5339    0.0000 C   0  0  0  0  0  0  0  0  0  0  0  0
   11.5054   -5.0469    0.0000 C   0  0  0  0  0  0  0  0  0  0  0  0
   12.6544   -4.0828    0.0000 C   0  0  0  0  0  0  0  0  0  0  0  0
   14.0640   -4.5958    0.0000 C   0  0  0  0  0  0  0  0  0  0  0  0
   15.4735   -5.1088    0.0000 N   0  0  0  0  0  0  0  0  0  0  0  0
   12.3940   -2.6055    0.0000 C   0  0  0  0  0  0  0  0  0  0  0  0
   13.5430   -1.6414    0.0000 C   0  0  0  0  0  0  0  0  0  0  0  0
   14.6921   -0.6772    0.0000 N   0  0  0  0  0  0  0  0  0  0  0  0
   10.9844   -2.0925    0.0000 C   0  0  0  0  0  0  0  0  0  0  0  0
    5.8672   -2.9948    0.0000 C   0  0  0  0  0  0  0  0  0  0  0  0
    0.7500   -3.8971    0.0000 P   0  0  0  0  0  0  0  0  0  0  0  0
    0.4895   -5.3743    0.0000 O   0  0  0  0  0  0  0  0  0  0  0  0
    1.5000   -2.5981    0.0000 O   0  0  0  0  0  0  0  0  0  0  0  0
    0.7500   -1.2990    0.0000 C   0  0  0  0  0  0  0  0  0  0  0  0
    1.5000    0.0000    0.0000 C   0  0  0  0  0  0  0  0  0  0  0  0
    0.7500    1.2990    0.0000 C   0  0  0  0  0  0  0  0  0  0  0  0
   -0.7500    1.2990    0.0000 C   0  0  0  0  0  0  0  0  0  0  0  0
   -1.5000    0.0000    0.0000 C   0  0  0  0  0  0  0  0  0  0  0  0
   -0.7500   -1.2990    0.0000 C   0  0  0  0  0  0  0  0  0  0  0  0
   -1.5000   -2.5981    0.0000 C   0  0  0  0  0  0  0  0  0  0  0  0
   -3.0000   -2.5981    0.0000 C   0  0  0  0  0  0  0  0  0  0  0  0
   -3.7500   -3.8971    0.0000 C   0  0  0  0  0  0  0  0  0  0  0  0
   -3.0000   -5.1962    0.0000 C   0  0  0  0  0  0  0  0  0  0  0  0
   -1.5000   -5.1962    0.0000 C   0  0  0  0  0  0  0  0  0  0  0  0
   -0.7500   -3.8971    0.0000 C   0  0  0  0  0  0  0  0  0  0  0  0
    1.2709   -6.8515    0.0000 C   0  0  0  0  0  0  0  0  0  0  0  0
    1.5314   -8.3287    0.0000 C   0  0  0  0  0  0  0  0  0  0  0  0
    4.6110  -10.8320    0.0000 P   0  0  0  0  0  0  0  0  0  0  0  0
    4.8714   -9.3548    0.0000 O   0  0  0  0  0  0  0  0  0  0  0  0
    3.8610  -12.1311    0.0000 O   0  0  0  0  0  0  0  0  0  0  0  0
    4.6110  -13.4301    0.0000 C   0  0  0  0  0  0  0  0  0  0  0  0
    3.8610  -14.7291    0.0000 C   0  0  0  0  0  0  0  0  0  0  0  0
    4.6110  -16.0282    0.0000 C   0  0  0  0  0  0  0  0  0  0  0  0
    6.1110  -16.0282    0.0000 C   0  0  0  0  0  0  0  0  0  0  0  0
    6.8610  -14.7291    0.0000 C   0  0  0  0  0  0  0  0  0  0  0  0
    6.1110  -13.4301    0.0000 C   0  0  0  0  0  0  0  0  0  0  0  0
    6.8610  -12.1311    0.0000 C   0  0  0  0  0  0  0  0  0  0  0  0
    8.3610  -12.1311    0.0000 C   0  0  0  0  0  0  0  0  0  0  0  0
    9.1110  -10.8320    0.0000 C   0  0  0  0  0  0  0  0  0  0  0  0
    8.3610   -9.5330    0.0000 C   0  0  0  0  0  0  0  0  0  0  0  0
    6.8610   -9.5330    0.0000 C   0  0  0  0  0  0  0  0  0  0  0  0
    6.1110  -10.8320    0.0000 C   0  0  0  0  0  0  0  0  0  0  0  0
  1  2  1  0
  2  3  1  0
  3  4  2  0
  4  5  1  0
  5  6  2  0
  6  7  1  0
  7  8  1  0
  8  9  1  0
  9 10  2  0
 10 11  1  0
 11 12  2  0
 12 13  1  0
 13 14  3  0
 12 15  1  0
 15 16  1  0
 16 17  3  0
 15 18  2  0
  7 19  2  0
  2 20  1  0
 20 21  1  0
 21 22  2  0
 22 23  1  0
 23 24  2  0
 24 25  1  0
 25 26  1  0
 26 27  1  0
 27 28  2  0
 28 29  1  0
 29 30  2  0
 30 31  1  0
 31 32  1  0
 32 33  1  0
 33 34  2  0
 34 35  1  0
 35 36  2  0
 36 37  1  0
 37 38  3  0
 36 39  1  0
 39 40  1  0
 40 41  3  0
 39 42  2  0
 31 43  2  0
 25 44  1  0
 44 45  2  0
 44 46  1  0
 46 47  1  0
 47 48  2  0
 48 49  1  0
 49 50  2  0
 50 51  1  0
 51 52  2  0
 52 53  1  0
 53 54  2  0
 54 55  1  0
 55 56  2  0
 56 57  1  0
 57 58  2  0
 24 59  1  0
 59 60  2  0
 20 61  1  0
 61 62  2  0
 61 63  1  0
 63 64  1  0
 64 65  2  0
 65 66  1  0
 66 67  2  0
 67 68  1  0
 68 69  2  0
 69 70  1  0
 70 71  2  0
 71 72  1  0
 72 73  2  0
 73 74  1  0
 74 75  2  0
 19  3  1  0
 60 21  1  0
 75 61  1  0
 18  9  1  0
 43 27  1  0
 58 44  1  0
 69 64  1  0
 75 70  1  0
 42 33  1  0
 52 47  1  0
 58 53  1  0
M  END
>  <Candidate_ID>  (67) 
CAND_R2_067

>  <Candidate_Name>  (67) 
PBD-NH-methyl

>  <Parent_Seed_ID>  (67) 
TRAIN_020

>  <Parent_Name>  (67) 
PBD

>  <Transformation_Code>  (67) 
NH_methyl

>  <Design_Family>  (67) 
P-N

>  <Preparation_Type>  (67) 
Additive

>  <Synthesis_Level>  (67) 
B

>  <Parent_Tanimoto_r3>  (67) 
0.7685185185185185

>  <Max_Train_Tanimoto_r3>  (67) 
0.7685185185185185

>  <Risk_Flags>  (67) 
none

$$$$
CAND_R2_068 | PBD-NH-methyl-all
     RDKit          2D

 76 86  0  0  0  0  0  0  0  0999 V2000
    2.3128  -12.7604    0.0000 C   0  0  0  0  0  0  0  0  0  0  0  0
    2.0524  -11.2832    0.0000 N   0  0  0  0  0  0  0  0  0  0  0  0
    0.6428  -10.7701    0.0000 C   0  0  0  0  0  0  0  0  0  0  0  0
    0.3824   -9.2929    0.0000 C   0  0  0  0  0  0  0  0  0  0  0  0
   -1.0272   -8.7799    0.0000 C   0  0  0  0  0  0  0  0  0  0  0  0
   -2.1763   -9.7441    0.0000 C   0  0  0  0  0  0  0  0  0  0  0  0
   -1.9158  -11.2213    0.0000 C   0  0  0  0  0  0  0  0  0  0  0  0
   -3.0648  -12.1855    0.0000 O   0  0  0  0  0  0  0  0  0  0  0  0
   -4.4744  -11.6724    0.0000 C   0  0  0  0  0  0  0  0  0  0  0  0
   -4.7349  -10.1952    0.0000 C   0  0  0  0  0  0  0  0  0  0  0  0
   -6.1444   -9.6822    0.0000 C   0  0  0  0  0  0  0  0  0  0  0  0
   -7.2935  -10.6464    0.0000 C   0  0  0  0  0  0  0  0  0  0  0  0
   -8.7030  -10.1334    0.0000 C   0  0  0  0  0  0  0  0  0  0  0  0
  -10.1125   -9.6203    0.0000 N   0  0  0  0  0  0  0  0  0  0  0  0
   -7.0330  -12.1236    0.0000 C   0  0  0  0  0  0  0  0  0  0  0  0
   -8.1821  -13.0878    0.0000 C   0  0  0  0  0  0  0  0  0  0  0  0
   -9.3311  -14.0520    0.0000 N   0  0  0  0  0  0  0  0  0  0  0  0
   -5.6235  -12.6366    0.0000 C   0  0  0  0  0  0  0  0  0  0  0  0
   -0.5062  -11.7343    0.0000 C   0  0  0  0  0  0  0  0  0  0  0  0
    3.2014  -10.3190    0.0000 C   0  0  0  0  0  0  0  0  0  0  0  0
    2.9410   -8.8418    0.0000 C   0  0  0  0  0  0  0  0  0  0  0  0
    4.0900   -7.8776    0.0000 C   0  0  0  0  0  0  0  0  0  0  0  0
    3.8296   -6.4004    0.0000 C   0  0  0  0  0  0  0  0  0  0  0  0
    2.4200   -5.8874    0.0000 C   0  0  0  0  0  0  0  0  0  0  0  0
    2.1595   -4.4101    0.0000 C   0  0  0  0  0  0  0  0  0  0  0  0
    3.3086   -3.4460    0.0000 N   0  0  0  0  0  0  0  0  0  0  0  0
    4.7181   -3.9590    0.0000 C   0  0  0  0  0  0  0  0  0  0  0  0
    3.0481   -1.9688    0.0000 C   0  0  0  0  0  0  0  0  0  0  0  0
    4.1972   -1.0046    0.0000 C   0  0  0  0  0  0  0  0  0  0  0  0
    3.9367    0.4726    0.0000 C   0  0  0  0  0  0  0  0  0  0  0  0
    2.5272    0.9857    0.0000 C   0  0  0  0  0  0  0  0  0  0  0  0
    1.3781    0.0215    0.0000 C   0  0  0  0  0  0  0  0  0  0  0  0
   -0.0314    0.5345    0.0000 O   0  0  0  0  0  0  0  0  0  0  0  0
   -0.2919    2.0117    0.0000 C   0  0  0  0  0  0  0  0  0  0  0  0
    0.8572    2.9759    0.0000 C   0  0  0  0  0  0  0  0  0  0  0  0
    0.5967    4.4531    0.0000 C   0  0  0  0  0  0  0  0  0  0  0  0
   -0.8128    4.9662    0.0000 C   0  0  0  0  0  0  0  0  0  0  0  0
   -1.0733    6.4434    0.0000 C   0  0  0  0  0  0  0  0  0  0  0  0
   -1.3338    7.9206    0.0000 N   0  0  0  0  0  0  0  0  0  0  0  0
   -1.9619    4.0020    0.0000 C   0  0  0  0  0  0  0  0  0  0  0  0
   -3.3714    4.5150    0.0000 C   0  0  0  0  0  0  0  0  0  0  0  0
   -4.7810    5.0280    0.0000 N   0  0  0  0  0  0  0  0  0  0  0  0
   -1.7014    2.5248    0.0000 C   0  0  0  0  0  0  0  0  0  0  0  0
    1.6386   -1.4557    0.0000 C   0  0  0  0  0  0  0  0  0  0  0  0
    0.7500   -3.8971    0.0000 P   0  0  0  0  0  0  0  0  0  0  0  0
    1.5000   -2.5981    0.0000 O   0  0  0  0  0  0  0  0  0  0  0  0
    0.4895   -5.3743    0.0000 O   0  0  0  0  0  0  0  0  0  0  0  0
   -0.9200   -5.8874    0.0000 C   0  0  0  0  0  0  0  0  0  0  0  0
   -1.1805   -7.3646    0.0000 C   0  0  0  0  0  0  0  0  0  0  0  0
   -2.5900   -7.8776    0.0000 C   0  0  0  0  0  0  0  0  0  0  0  0
   -3.7391   -6.9134    0.0000 C   0  0  0  0  0  0  0  0  0  0  0  0
   -3.4786   -5.4362    0.0000 C   0  0  0  0  0  0  0  0  0  0  0  0
   -2.0691   -4.9232    0.0000 C   0  0  0  0  0  0  0  0  0  0  0  0
   -1.8086   -3.4460    0.0000 C   0  0  0  0  0  0  0  0  0  0  0  0
   -2.9577   -2.4818    0.0000 C   0  0  0  0  0  0  0  0  0  0  0  0
   -2.6972   -1.0046    0.0000 C   0  0  0  0  0  0  0  0  0  0  0  0
   -1.2877   -0.4915    0.0000 C   0  0  0  0  0  0  0  0  0  0  0  0
   -0.1386   -1.4557    0.0000 C   0  0  0  0  0  0  0  0  0  0  0  0
   -0.3991   -2.9329    0.0000 C   0  0  0  0  0  0  0  0  0  0  0  0
    1.2709   -6.8515    0.0000 C   0  0  0  0  0  0  0  0  0  0  0  0
    1.5314   -8.3287    0.0000 C   0  0  0  0  0  0  0  0  0  0  0  0
    4.6110  -10.8320    0.0000 P   0  0  0  0  0  0  0  0  0  0  0  0
    4.8714   -9.3548    0.0000 O   0  0  0  0  0  0  0  0  0  0  0  0
    3.8610  -12.1311    0.0000 O   0  0  0  0  0  0  0  0  0  0  0  0
    4.6110  -13.4301    0.0000 C   0  0  0  0  0  0  0  0  0  0  0  0
    3.8610  -14.7291    0.0000 C   0  0  0  0  0  0  0  0  0  0  0  0
    4.6110  -16.0282    0.0000 C   0  0  0  0  0  0  0  0  0  0  0  0
    6.1110  -16.0282    0.0000 C   0  0  0  0  0  0  0  0  0  0  0  0
    6.8610  -14.7291    0.0000 C   0  0  0  0  0  0  0  0  0  0  0  0
    6.1110  -13.4301    0.0000 C   0  0  0  0  0  0  0  0  0  0  0  0
    6.8610  -12.1311    0.0000 C   0  0  0  0  0  0  0  0  0  0  0  0
    8.3610  -12.1311    0.0000 C   0  0  0  0  0  0  0  0  0  0  0  0
    9.1110  -10.8320    0.0000 C   0  0  0  0  0  0  0  0  0  0  0  0
    8.3610   -9.5330    0.0000 C   0  0  0  0  0  0  0  0  0  0  0  0
    6.8610   -9.5330    0.0000 C   0  0  0  0  0  0  0  0  0  0  0  0
    6.1110  -10.8320    0.0000 C   0  0  0  0  0  0  0  0  0  0  0  0
  1  2  1  0
  2  3  1  0
  3  4  2  0
  4  5  1  0
  5  6  2  0
  6  7  1  0
  7  8  1  0
  8  9  1  0
  9 10  2  0
 10 11  1  0
 11 12  2  0
 12 13  1  0
 13 14  3  0
 12 15  1  0
 15 16  1  0
 16 17  3  0
 15 18  2  0
  7 19  2  0
  2 20  1  0
 20 21  1  0
 21 22  2  0
 22 23  1  0
 23 24  2  0
 24 25  1  0
 25 26  1  0
 26 27  1  0
 26 28  1  0
 28 29  2  0
 29 30  1  0
 30 31  2  0
 31 32  1  0
 32 33  1  0
 33 34  1  0
 34 35  2  0
 35 36  1  0
 36 37  2  0
 37 38  1  0
 38 39  3  0
 37 40  1  0
 40 41  1  0
 41 42  3  0
 40 43  2  0
 32 44  2  0
 25 45  1  0
 45 46  2  0
 45 47  1  0
 47 48  1  0
 48 49  2  0
 49 50  1  0
 50 51  2  0
 51 52  1  0
 52 53  2  0
 53 54  1  0
 54 55  2  0
 55 56  1  0
 56 57  2  0
 57 58  1  0
 58 59  2  0
 24 60  1  0
 60 61  2  0
 20 62  1  0
 62 63  2  0
 62 64  1  0
 64 65  1  0
 65 66  2  0
 66 67  1  0
 67 68  2  0
 68 69  1  0
 69 70  2  0
 70 71  1  0
 71 72  2  0
 72 73  1  0
 73 74  2  0
 74 75  1  0
 75 76  2  0
 19  3  1  0
 61 21  1  0
 76 62  1  0
 18  9  1  0
 44 28  1  0
 59 45  1  0
 70 65  1  0
 76 71  1  0
 43 34  1  0
 53 48  1  0
 59 54  1  0
M  END
>  <Candidate_ID>  (68) 
CAND_R2_068

>  <Candidate_Name>  (68) 
PBD-NH-methyl-all

>  <Parent_Seed_ID>  (68) 
TRAIN_020

>  <Parent_Name>  (68) 
PBD

>  <Transformation_Code>  (68) 
NH_methyl_all

>  <Design_Family>  (68) 
P-N

>  <Preparation_Type>  (68) 
Additive

>  <Synthesis_Level>  (68) 
B

>  <Parent_Tanimoto_r3>  (68) 
0.5648148148148148

>  <Max_Train_Tanimoto_r3>  (68) 
0.5648148148148148

>  <Risk_Flags>  (68) 
large structural change from parent; candidate may be outside strict in-domain threshold

$$$$
CAND_R2_069 | PBD-NH-hydroxyethyl
     RDKit          2D

 77 87  0  0  0  0  0  0  0  0999 V2000
   -6.7725  -13.6008    0.0000 N   0  0  0  0  0  0  0  0  0  0  0  0
   -5.3630  -14.1138    0.0000 C   0  0  0  0  0  0  0  0  0  0  0  0
   -3.9534  -14.6269    0.0000 C   0  0  0  0  0  0  0  0  0  0  0  0
   -2.8044  -13.6627    0.0000 C   0  0  0  0  0  0  0  0  0  0  0  0
   -1.3948  -14.1757    0.0000 C   0  0  0  0  0  0  0  0  0  0  0  0
   -1.1344  -15.6529    0.0000 C   0  0  0  0  0  0  0  0  0  0  0  0
    0.2752  -16.1660    0.0000 O   0  0  0  0  0  0  0  0  0  0  0  0
    1.4242  -15.2018    0.0000 C   0  0  0  0  0  0  0  0  0  0  0  0
    2.8338  -15.7148    0.0000 C   0  0  0  0  0  0  0  0  0  0  0  0
    3.9828  -14.7506    0.0000 C   0  0  0  0  0  0  0  0  0  0  0  0
    3.7224  -13.2734    0.0000 C   0  0  0  0  0  0  0  0  0  0  0  0
    2.3128  -12.7604    0.0000 C   0  0  0  0  0  0  0  0  0  0  0  0
    2.0524  -11.2832    0.0000 N   0  0  0  0  0  0  0  0  0  0  0  0
    3.2014  -10.3190    0.0000 C   0  0  0  0  0  0  0  0  0  0  0  0
    2.9410   -8.8418    0.0000 C   0  0  0  0  0  0  0  0  0  0  0  0
    4.0900   -7.8776    0.0000 C   0  0  0  0  0  0  0  0  0  0  0  0
    3.8296   -6.4004    0.0000 C   0  0  0  0  0  0  0  0  0  0  0  0
    2.4200   -5.8874    0.0000 C   0  0  0  0  0  0  0  0  0  0  0  0
    2.1595   -4.4101    0.0000 C   0  0  0  0  0  0  0  0  0  0  0  0
    3.3086   -3.4460    0.0000 N   0  0  0  0  0  0  0  0  0  0  0  0
    4.7181   -3.9590    0.0000 C   0  0  0  0  0  0  0  0  0  0  0  0
    5.8672   -2.9948    0.0000 C   0  0  0  0  0  0  0  0  0  0  0  0
    7.2768   -3.5078    0.0000 O   0  0  0  0  0  0  0  0  0  0  0  0
    3.0481   -1.9688    0.0000 C   0  0  0  0  0  0  0  0  0  0  0  0
    4.1972   -1.0046    0.0000 C   0  0  0  0  0  0  0  0  0  0  0  0
    3.9367    0.4726    0.0000 C   0  0  0  0  0  0  0  0  0  0  0  0
    2.5272    0.9857    0.0000 C   0  0  0  0  0  0  0  0  0  0  0  0
    1.3781    0.0215    0.0000 C   0  0  0  0  0  0  0  0  0  0  0  0
   -0.0314    0.5345    0.0000 O   0  0  0  0  0  0  0  0  0  0  0  0
   -0.2919    2.0117    0.0000 C   0  0  0  0  0  0  0  0  0  0  0  0
    0.8572    2.9759    0.0000 C   0  0  0  0  0  0  0  0  0  0  0  0
    0.5967    4.4531    0.0000 C   0  0  0  0  0  0  0  0  0  0  0  0
   -0.8128    4.9662    0.0000 C   0  0  0  0  0  0  0  0  0  0  0  0
   -1.0733    6.4434    0.0000 C   0  0  0  0  0  0  0  0  0  0  0  0
   -1.3338    7.9206    0.0000 N   0  0  0  0  0  0  0  0  0  0  0  0
   -1.9619    4.0020    0.0000 C   0  0  0  0  0  0  0  0  0  0  0  0
   -3.3714    4.5150    0.0000 C   0  0  0  0  0  0  0  0  0  0  0  0
   -4.7810    5.0280    0.0000 N   0  0  0  0  0  0  0  0  0  0  0  0
   -1.7014    2.5248    0.0000 C   0  0  0  0  0  0  0  0  0  0  0  0
    1.6386   -1.4557    0.0000 C   0  0  0  0  0  0  0  0  0  0  0  0
    0.7500   -3.8971    0.0000 P   0  0  0  0  0  0  0  0  0  0  0  0
    1.5000   -2.5981    0.0000 O   0  0  0  0  0  0  0  0  0  0  0  0
    0.4895   -5.3743    0.0000 O   0  0  0  0  0  0  0  0  0  0  0  0
   -0.9200   -5.8874    0.0000 C   0  0  0  0  0  0  0  0  0  0  0  0
   -1.1805   -7.3646    0.0000 C   0  0  0  0  0  0  0  0  0  0  0  0
   -2.5900   -7.8776    0.0000 C   0  0  0  0  0  0  0  0  0  0  0  0
   -3.7391   -6.9134    0.0000 C   0  0  0  0  0  0  0  0  0  0  0  0
   -3.4786   -5.4362    0.0000 C   0  0  0  0  0  0  0  0  0  0  0  0
   -2.0691   -4.9232    0.0000 C   0  0  0  0  0  0  0  0  0  0  0  0
   -1.8086   -3.4460    0.0000 C   0  0  0  0  0  0  0  0  0  0  0  0
   -2.9577   -2.4818    0.0000 C   0  0  0  0  0  0  0  0  0  0  0  0
   -2.6972   -1.0046    0.0000 C   0  0  0  0  0  0  0  0  0  0  0  0
   -1.2877   -0.4915    0.0000 C   0  0  0  0  0  0  0  0  0  0  0  0
   -0.1386   -1.4557    0.0000 C   0  0  0  0  0  0  0  0  0  0  0  0
   -0.3991   -2.9329    0.0000 C   0  0  0  0  0  0  0  0  0  0  0  0
    1.2709   -6.8515    0.0000 C   0  0  0  0  0  0  0  0  0  0  0  0
    1.5314   -8.3287    0.0000 C   0  0  0  0  0  0  0  0  0  0  0  0
    4.6110  -10.8320    0.0000 P   0  0  0  0  0  0  0  0  0  0  0  0
    3.8610  -12.1311    0.0000 O   0  0  0  0  0  0  0  0  0  0  0  0
    4.8714   -9.3548    0.0000 O   0  0  0  0  0  0  0  0  0  0  0  0
    6.2810   -8.8418    0.0000 C   0  0  0  0  0  0  0  0  0  0  0  0
    6.5415   -7.3646    0.0000 C   0  0  0  0  0  0  0  0  0  0  0  0
    7.9510   -6.8515    0.0000 C   0  0  0  0  0  0  0  0  0  0  0  0
    9.1001   -7.8157    0.0000 C   0  0  0  0  0  0  0  0  0  0  0  0
    8.8396   -9.2929    0.0000 C   0  0  0  0  0  0  0  0  0  0  0  0
    7.4300   -9.8060    0.0000 C   0  0  0  0  0  0  0  0  0  0  0  0
    7.1696  -11.2832    0.0000 C   0  0  0  0  0  0  0  0  0  0  0  0
    8.3186  -12.2474    0.0000 C   0  0  0  0  0  0  0  0  0  0  0  0
    8.0582  -13.7246    0.0000 C   0  0  0  0  0  0  0  0  0  0  0  0
    6.6486  -14.2376    0.0000 C   0  0  0  0  0  0  0  0  0  0  0  0
    5.4996  -13.2734    0.0000 C   0  0  0  0  0  0  0  0  0  0  0  0
    5.7600  -11.7962    0.0000 C   0  0  0  0  0  0  0  0  0  0  0  0
    1.1638  -13.7246    0.0000 C   0  0  0  0  0  0  0  0  0  0  0  0
   -2.2834  -16.6171    0.0000 C   0  0  0  0  0  0  0  0  0  0  0  0
   -3.6930  -16.1041    0.0000 C   0  0  0  0  0  0  0  0  0  0  0  0
   -4.8420  -17.0683    0.0000 C   0  0  0  0  0  0  0  0  0  0  0  0
   -5.9911  -18.0324    0.0000 N   0  0  0  0  0  0  0  0  0  0  0  0
  1  2  3  0
  2  3  1  0
  3  4  2  0
  4  5  1  0
  5  6  2  0
  6  7  1  0
  7  8  1  0
  8  9  2  0
  9 10  1  0
 10 11  2  0
 11 12  1  0
 12 13  1  0
 13 14  1  0
 14 15  1  0
 15 16  2  0
 16 17  1  0
 17 18  2  0
 18 19  1  0
 19 20  1  0
 20 21  1  0
 21 22  1  0
 22 23  1  0
 20 24  1  0
 24 25  2  0
 25 26  1  0
 26 27  2  0
 27 28  1  0
 28 29  1  0
 29 30  1  0
 30 31  2  0
 31 32  1  0
 32 33  2  0
 33 34  1  0
 34 35  3  0
 33 36  1  0
 36 37  1  0
 37 38  3  0
 36 39  2  0
 28 40  2  0
 19 41  1  0
 41 42  2  0
 41 43  1  0
 43 44  1  0
 44 45  2  0
 45 46  1  0
 46 47  2  0
 47 48  1  0
 48 49  2  0
 49 50  1  0
 50 51  2  0
 51 52  1  0
 52 53  2  0
 53 54  1  0
 54 55  2  0
 18 56  1  0
 56 57  2  0
 14 58  1  0
 58 59  2  0
 58 60  1  0
 60 61  1  0
 61 62  2  0
 62 63  1  0
 63 64  2  0
 64 65  1  0
 65 66  2  0
 66 67  1  0
 67 68  2  0
 68 69  1  0
 69 70  2  0
 70 71  1  0
 71 72  2  0
 12 73  2  0
  6 74  1  0
 74 75  2  0
 75 76  1  0
 76 77  3  0
 75  3  1  0
 73  8  1  0
 57 15  1  0
 72 58  1  0
 40 24  1  0
 55 41  1  0
 66 61  1  0
 72 67  1  0
 39 30  1  0
 49 44  1  0
 55 50  1  0
M  END
>  <Candidate_ID>  (69) 
CAND_R2_069

>  <Candidate_Name>  (69) 
PBD-NH-hydroxyethyl

>  <Parent_Seed_ID>  (69) 
TRAIN_020

>  <Parent_Name>  (69) 
PBD

>  <Transformation_Code>  (69) 
NH_hydroxyethyl

>  <Design_Family>  (69) 
P-N

>  <Preparation_Type>  (69) 
Additive

>  <Synthesis_Level>  (69) 
B

>  <Parent_Tanimoto_r3>  (69) 
0.7345132743362832

>  <Max_Train_Tanimoto_r3>  (69) 
0.7345132743362832

>  <Risk_Flags>  (69) 
none

$$$$
CAND_R2_070 | PBD-NH-hydroxyethyl-all
     RDKit          2D

 80 90  0  0  0  0  0  0  0  0999 V2000
   -8.3354   -4.7375    0.0000 N   0  0  0  0  0  0  0  0  0  0  0  0
   -6.9258   -5.2506    0.0000 C   0  0  0  0  0  0  0  0  0  0  0  0
   -5.5163   -5.7636    0.0000 C   0  0  0  0  0  0  0  0  0  0  0  0
   -4.3672   -4.7994    0.0000 C   0  0  0  0  0  0  0  0  0  0  0  0
   -2.9577   -5.3124    0.0000 C   0  0  0  0  0  0  0  0  0  0  0  0
   -2.6972   -6.7897    0.0000 C   0  0  0  0  0  0  0  0  0  0  0  0
   -1.2877   -7.3027    0.0000 O   0  0  0  0  0  0  0  0  0  0  0  0
   -1.0272   -8.7799    0.0000 C   0  0  0  0  0  0  0  0  0  0  0  0
   -2.1763   -9.7441    0.0000 C   0  0  0  0  0  0  0  0  0  0  0  0
   -1.9158  -11.2213    0.0000 C   0  0  0  0  0  0  0  0  0  0  0  0
   -0.5062  -11.7343    0.0000 C   0  0  0  0  0  0  0  0  0  0  0  0
    0.6428  -10.7701    0.0000 C   0  0  0  0  0  0  0  0  0  0  0  0
    2.0524  -11.2832    0.0000 N   0  0  0  0  0  0  0  0  0  0  0  0
    2.3128  -12.7604    0.0000 C   0  0  0  0  0  0  0  0  0  0  0  0
    1.1638  -13.7246    0.0000 C   0  0  0  0  0  0  0  0  0  0  0  0
    1.4242  -15.2018    0.0000 O   0  0  0  0  0  0  0  0  0  0  0  0
    3.2014  -10.3190    0.0000 C   0  0  0  0  0  0  0  0  0  0  0  0
    2.9410   -8.8418    0.0000 C   0  0  0  0  0  0  0  0  0  0  0  0
    4.0900   -7.8776    0.0000 C   0  0  0  0  0  0  0  0  0  0  0  0
    3.8296   -6.4004    0.0000 C   0  0  0  0  0  0  0  0  0  0  0  0
    2.4200   -5.8874    0.0000 C   0  0  0  0  0  0  0  0  0  0  0  0
    2.1595   -4.4101    0.0000 C   0  0  0  0  0  0  0  0  0  0  0  0
    0.7500   -3.8971    0.0000 N   0  0  0  0  0  0  0  0  0  0  0  0
   -0.3991   -4.8613    0.0000 C   0  0  0  0  0  0  0  0  0  0  0  0
   -1.8086   -4.3483    0.0000 C   0  0  0  0  0  0  0  0  0  0  0  0
   -2.0691   -2.8711    0.0000 O   0  0  0  0  0  0  0  0  0  0  0  0
    0.4895   -2.4199    0.0000 C   0  0  0  0  0  0  0  0  0  0  0  0
   -0.9200   -1.9069    0.0000 C   0  0  0  0  0  0  0  0  0  0  0  0
   -1.1805   -0.4297    0.0000 C   0  0  0  0  0  0  0  0  0  0  0  0
   -0.0314    0.5345    0.0000 C   0  0  0  0  0  0  0  0  0  0  0  0
    1.3781    0.0215    0.0000 C   0  0  0  0  0  0  0  0  0  0  0  0
    2.5272    0.9857    0.0000 O   0  0  0  0  0  0  0  0  0  0  0  0
    2.2667    2.4629    0.0000 C   0  0  0  0  0  0  0  0  0  0  0  0
    0.8572    2.9759    0.0000 C   0  0  0  0  0  0  0  0  0  0  0  0
    0.5967    4.4531    0.0000 C   0  0  0  0  0  0  0  0  0  0  0  0
    1.7458    5.4173    0.0000 C   0  0  0  0  0  0  0  0  0  0  0  0
    1.4853    6.8945    0.0000 C   0  0  0  0  0  0  0  0  0  0  0  0
    1.2248    8.3717    0.0000 N   0  0  0  0  0  0  0  0  0  0  0  0
    3.1553    4.9043    0.0000 C   0  0  0  0  0  0  0  0  0  0  0  0
    4.3044    5.8685    0.0000 C   0  0  0  0  0  0  0  0  0  0  0  0
    5.4534    6.8326    0.0000 N   0  0  0  0  0  0  0  0  0  0  0  0
    3.4158    3.4271    0.0000 C   0  0  0  0  0  0  0  0  0  0  0  0
    1.6386   -1.4557    0.0000 C   0  0  0  0  0  0  0  0  0  0  0  0
    3.3086   -3.4460    0.0000 P   0  0  0  0  0  0  0  0  0  0  0  0
    2.1595   -2.4818    0.0000 O   0  0  0  0  0  0  0  0  0  0  0  0
    4.0586   -4.7450    0.0000 O   0  0  0  0  0  0  0  0  0  0  0  0
    5.5586   -4.7450    0.0000 C   0  0  0  0  0  0  0  0  0  0  0  0
    6.3086   -6.0440    0.0000 C   0  0  0  0  0  0  0  0  0  0  0  0
    7.8086   -6.0440    0.0000 C   0  0  0  0  0  0  0  0  0  0  0  0
    8.5586   -4.7450    0.0000 C   0  0  0  0  0  0  0  0  0  0  0  0
    7.8086   -3.4460    0.0000 C   0  0  0  0  0  0  0  0  0  0  0  0
    6.3086   -3.4460    0.0000 C   0  0  0  0  0  0  0  0  0  0  0  0
    5.5586   -2.1469    0.0000 C   0  0  0  0  0  0  0  0  0  0  0  0
    6.3086   -0.8479    0.0000 C   0  0  0  0  0  0  0  0  0  0  0  0
    5.5586    0.4512    0.0000 C   0  0  0  0  0  0  0  0  0  0  0  0
    4.0586    0.4512    0.0000 C   0  0  0  0  0  0  0  0  0  0  0  0
    3.3086   -0.8479    0.0000 C   0  0  0  0  0  0  0  0  0  0  0  0
    4.0586   -2.1469    0.0000 C   0  0  0  0  0  0  0  0  0  0  0  0
    1.2709   -6.8515    0.0000 C   0  0  0  0  0  0  0  0  0  0  0  0
    1.5314   -8.3287    0.0000 C   0  0  0  0  0  0  0  0  0  0  0  0
    4.6110  -10.8320    0.0000 P   0  0  0  0  0  0  0  0  0  0  0  0
    4.8714   -9.3548    0.0000 O   0  0  0  0  0  0  0  0  0  0  0  0
    3.8610  -12.1311    0.0000 O   0  0  0  0  0  0  0  0  0  0  0  0
    4.6110  -13.4301    0.0000 C   0  0  0  0  0  0  0  0  0  0  0  0
    3.8610  -14.7291    0.0000 C   0  0  0  0  0  0  0  0  0  0  0  0
    4.6110  -16.0282    0.0000 C   0  0  0  0  0  0  0  0  0  0  0  0
    6.1110  -16.0282    0.0000 C   0  0  0  0  0  0  0  0  0  0  0  0
    6.8610  -14.7291    0.0000 C   0  0  0  0  0  0  0  0  0  0  0  0
    6.1110  -13.4301    0.0000 C   0  0  0  0  0  0  0  0  0  0  0  0
    6.8610  -12.1311    0.0000 C   0  0  0  0  0  0  0  0  0  0  0  0
    8.3610  -12.1311    0.0000 C   0  0  0  0  0  0  0  0  0  0  0  0
    9.1110  -10.8320    0.0000 C   0  0  0  0  0  0  0  0  0  0  0  0
    8.3610   -9.5330    0.0000 C   0  0  0  0  0  0  0  0  0  0  0  0
    6.8610   -9.5330    0.0000 C   0  0  0  0  0  0  0  0  0  0  0  0
    6.1110  -10.8320    0.0000 C   0  0  0  0  0  0  0  0  0  0  0  0
    0.3824   -9.2929    0.0000 C   0  0  0  0  0  0  0  0  0  0  0  0
   -3.8463   -7.7538    0.0000 C   0  0  0  0  0  0  0  0  0  0  0  0
   -5.2558   -7.2408    0.0000 C   0  0  0  0  0  0  0  0  0  0  0  0
   -6.4049   -8.2050    0.0000 C   0  0  0  0  0  0  0  0  0  0  0  0
   -7.5539   -9.1692    0.0000 N   0  0  0  0  0  0  0  0  0  0  0  0
  1  2  3  0
  2  3  1  0
  3  4  2  0
  4  5  1  0
  5  6  2  0
  6  7  1  0
  7  8  1  0
  8  9  2  0
  9 10  1  0
 10 11  2  0
 11 12  1  0
 12 13  1  0
 13 14  1  0
 14 15  1  0
 15 16  1  0
 13 17  1  0
 17 18  1  0
 18 19  2  0
 19 20  1  0
 20 21  2  0
 21 22  1  0
 22 23  1  0
 23 24  1  0
 24 25  1  0
 25 26  1  0
 23 27  1  0
 27 28  2  0
 28 29  1  0
 29 30  2  0
 30 31  1  0
 31 32  1  0
 32 33  1  0
 33 34  2  0
 34 35  1  0
 35 36  2  0
 36 37  1  0
 37 38  3  0
 36 39  1  0
 39 40  1  0
 40 41  3  0
 39 42  2  0
 31 43  2  0
 22 44  1  0
 44 45  2  0
 44 46  1  0
 46 47  1  0
 47 48  2  0
 48 49  1  0
 49 50  2  0
 50 51  1  0
 51 52  2  0
 52 53  1  0
 53 54  2  0
 54 55  1  0
 55 56  2  0
 56 57  1  0
 57 58  2  0
 21 59  1  0
 59 60  2  0
 17 61  1  0
 61 62  2  0
 61 63  1  0
 63 64  1  0
 64 65  2  0
 65 66  1  0
 66 67  2  0
 67 68  1  0
 68 69  2  0
 69 70  1  0
 70 71  2  0
 71 72  1  0
 72 73  2  0
 73 74  1  0
 74 75  2  0
 12 76  2  0
  6 77  1  0
 77 78  2  0
 78 79  1  0
 79 80  3  0
 78  3  1  0
 76  8  1  0
 60 18  1  0
 75 61  1  0
 43 27  1  0
 58 44  1  0
 69 64  1  0
 75 70  1  0
 42 33  1  0
 52 47  1  0
 58 53  1  0
M  END
>  <Candidate_ID>  (70) 
CAND_R2_070

>  <Candidate_Name>  (70) 
PBD-NH-hydroxyethyl-all

>  <Parent_Seed_ID>  (70) 
TRAIN_020

>  <Parent_Name>  (70) 
PBD

>  <Transformation_Code>  (70) 
NH_hydroxyethyl_all

>  <Design_Family>  (70) 
P-N

>  <Preparation_Type>  (70) 
Additive

>  <Synthesis_Level>  (70) 
C

>  <Parent_Tanimoto_r3>  (70) 
0.5398230088495575

>  <Max_Train_Tanimoto_r3>  (70) 
0.5398230088495575

>  <Risk_Flags>  (70) 
large structural change from parent; candidate may be outside strict in-domain threshold; exploratory only; excluded from formal screening

$$$$
CAND_R2_071 | PBD-NH-glycidyl
     RDKit          2D

 78 89  0  0  0  0  0  0  0  0999 V2000
   -6.7725  -13.6008    0.0000 N   0  0  0  0  0  0  0  0  0  0  0  0
   -5.3630  -14.1138    0.0000 C   0  0  0  0  0  0  0  0  0  0  0  0
   -3.9534  -14.6269    0.0000 C   0  0  0  0  0  0  0  0  0  0  0  0
   -2.8044  -13.6627    0.0000 C   0  0  0  0  0  0  0  0  0  0  0  0
   -1.3948  -14.1757    0.0000 C   0  0  0  0  0  0  0  0  0  0  0  0
   -1.1344  -15.6529    0.0000 C   0  0  0  0  0  0  0  0  0  0  0  0
    0.2752  -16.1660    0.0000 O   0  0  0  0  0  0  0  0  0  0  0  0
    1.4242  -15.2018    0.0000 C   0  0  0  0  0  0  0  0  0  0  0  0
    2.8338  -15.7148    0.0000 C   0  0  0  0  0  0  0  0  0  0  0  0
    3.9828  -14.7506    0.0000 C   0  0  0  0  0  0  0  0  0  0  0  0
    3.7224  -13.2734    0.0000 C   0  0  0  0  0  0  0  0  0  0  0  0
    2.3128  -12.7604    0.0000 C   0  0  0  0  0  0  0  0  0  0  0  0
    2.0524  -11.2832    0.0000 N   0  0  0  0  0  0  0  0  0  0  0  0
    3.2014  -10.3190    0.0000 C   0  0  0  0  0  0  0  0  0  0  0  0
    2.9410   -8.8418    0.0000 C   0  0  0  0  0  0  0  0  0  0  0  0
    4.0900   -7.8776    0.0000 C   0  0  0  0  0  0  0  0  0  0  0  0
    3.8296   -6.4004    0.0000 C   0  0  0  0  0  0  0  0  0  0  0  0
    2.4200   -5.8874    0.0000 C   0  0  0  0  0  0  0  0  0  0  0  0
    2.1595   -4.4101    0.0000 C   0  0  0  0  0  0  0  0  0  0  0  0
    3.3086   -3.4460    0.0000 N   0  0  0  0  0  0  0  0  0  0  0  0
    4.7181   -3.9590    0.0000 C   0  0  0  0  0  0  0  0  0  0  0  0
    5.8672   -2.9948    0.0000 C   0  0  0  0  0  0  0  0  0  0  0  0
    6.3802   -1.5853    0.0000 C   0  0  0  0  0  0  0  0  0  0  0  0
    7.3444   -2.7343    0.0000 O   0  0  0  0  0  0  0  0  0  0  0  0
    3.0481   -1.9688    0.0000 C   0  0  0  0  0  0  0  0  0  0  0  0
    4.1972   -1.0046    0.0000 C   0  0  0  0  0  0  0  0  0  0  0  0
    3.9367    0.4726    0.0000 C   0  0  0  0  0  0  0  0  0  0  0  0
    2.5272    0.9857    0.0000 C   0  0  0  0  0  0  0  0  0  0  0  0
    1.3781    0.0215    0.0000 C   0  0  0  0  0  0  0  0  0  0  0  0
   -0.0314    0.5345    0.0000 O   0  0  0  0  0  0  0  0  0  0  0  0
   -0.2919    2.0117    0.0000 C   0  0  0  0  0  0  0  0  0  0  0  0
    0.8572    2.9759    0.0000 C   0  0  0  0  0  0  0  0  0  0  0  0
    0.5967    4.4531    0.0000 C   0  0  0  0  0  0  0  0  0  0  0  0
   -0.8128    4.9662    0.0000 C   0  0  0  0  0  0  0  0  0  0  0  0
   -1.0733    6.4434    0.0000 C   0  0  0  0  0  0  0  0  0  0  0  0
   -1.3338    7.9206    0.0000 N   0  0  0  0  0  0  0  0  0  0  0  0
   -1.9619    4.0020    0.0000 C   0  0  0  0  0  0  0  0  0  0  0  0
   -3.3714    4.5150    0.0000 C   0  0  0  0  0  0  0  0  0  0  0  0
   -4.7810    5.0280    0.0000 N   0  0  0  0  0  0  0  0  0  0  0  0
   -1.7014    2.5248    0.0000 C   0  0  0  0  0  0  0  0  0  0  0  0
    1.6386   -1.4557    0.0000 C   0  0  0  0  0  0  0  0  0  0  0  0
    0.7500   -3.8971    0.0000 P   0  0  0  0  0  0  0  0  0  0  0  0
    1.5000   -2.5981    0.0000 O   0  0  0  0  0  0  0  0  0  0  0  0
    0.4895   -5.3743    0.0000 O   0  0  0  0  0  0  0  0  0  0  0  0
   -0.9200   -5.8874    0.0000 C   0  0  0  0  0  0  0  0  0  0  0  0
   -1.1805   -7.3646    0.0000 C   0  0  0  0  0  0  0  0  0  0  0  0
   -2.5900   -7.8776    0.0000 C   0  0  0  0  0  0  0  0  0  0  0  0
   -3.7391   -6.9134    0.0000 C   0  0  0  0  0  0  0  0  0  0  0  0
   -3.4786   -5.4362    0.0000 C   0  0  0  0  0  0  0  0  0  0  0  0
   -2.0691   -4.9232    0.0000 C   0  0  0  0  0  0  0  0  0  0  0  0
   -1.8086   -3.4460    0.0000 C   0  0  0  0  0  0  0  0  0  0  0  0
   -2.9577   -2.4818    0.0000 C   0  0  0  0  0  0  0  0  0  0  0  0
   -2.6972   -1.0046    0.0000 C   0  0  0  0  0  0  0  0  0  0  0  0
   -1.2877   -0.4915    0.0000 C   0  0  0  0  0  0  0  0  0  0  0  0
   -0.1386   -1.4557    0.0000 C   0  0  0  0  0  0  0  0  0  0  0  0
   -0.3991   -2.9329    0.0000 C   0  0  0  0  0  0  0  0  0  0  0  0
    1.2709   -6.8515    0.0000 C   0  0  0  0  0  0  0  0  0  0  0  0
    1.5314   -8.3287    0.0000 C   0  0  0  0  0  0  0  0  0  0  0  0
    4.6110  -10.8320    0.0000 P   0  0  0  0  0  0  0  0  0  0  0  0
    3.8610  -12.1311    0.0000 O   0  0  0  0  0  0  0  0  0  0  0  0
    4.8714   -9.3548    0.0000 O   0  0  0  0  0  0  0  0  0  0  0  0
    6.2810   -8.8418    0.0000 C   0  0  0  0  0  0  0  0  0  0  0  0
    6.5415   -7.3646    0.0000 C   0  0  0  0  0  0  0  0  0  0  0  0
    7.9510   -6.8515    0.0000 C   0  0  0  0  0  0  0  0  0  0  0  0
    9.1001   -7.8157    0.0000 C   0  0  0  0  0  0  0  0  0  0  0  0
    8.8396   -9.2929    0.0000 C   0  0  0  0  0  0  0  0  0  0  0  0
    7.4300   -9.8060    0.0000 C   0  0  0  0  0  0  0  0  0  0  0  0
    7.1696  -11.2832    0.0000 C   0  0  0  0  0  0  0  0  0  0  0  0
    8.3186  -12.2474    0.0000 C   0  0  0  0  0  0  0  0  0  0  0  0
    8.0582  -13.7246    0.0000 C   0  0  0  0  0  0  0  0  0  0  0  0
    6.6486  -14.2376    0.0000 C   0  0  0  0  0  0  0  0  0  0  0  0
    5.4996  -13.2734    0.0000 C   0  0  0  0  0  0  0  0  0  0  0  0
    5.7600  -11.7962    0.0000 C   0  0  0  0  0  0  0  0  0  0  0  0
    1.1638  -13.7246    0.0000 C   0  0  0  0  0  0  0  0  0  0  0  0
   -2.2834  -16.6171    0.0000 C   0  0  0  0  0  0  0  0  0  0  0  0
   -3.6930  -16.1041    0.0000 C   0  0  0  0  0  0  0  0  0  0  0  0
   -4.8420  -17.0683    0.0000 C   0  0  0  0  0  0  0  0  0  0  0  0
   -5.9911  -18.0324    0.0000 N   0  0  0  0  0  0  0  0  0  0  0  0
  1  2  3  0
  2  3  1  0
  3  4  2  0
  4  5  1  0
  5  6  2  0
  6  7  1  0
  7  8  1  0
  8  9  2  0
  9 10  1  0
 10 11  2  0
 11 12  1  0
 12 13  1  0
 13 14  1  0
 14 15  1  0
 15 16  2  0
 16 17  1  0
 17 18  2  0
 18 19  1  0
 19 20  1  0
 20 21  1  0
 21 22  1  0
 22 23  1  0
 23 24  1  0
 20 25  1  0
 25 26  2  0
 26 27  1  0
 27 28  2  0
 28 29  1  0
 29 30  1  0
 30 31  1  0
 31 32  2  0
 32 33  1  0
 33 34  2  0
 34 35  1  0
 35 36  3  0
 34 37  1  0
 37 38  1  0
 38 39  3  0
 37 40  2  0
 29 41  2  0
 19 42  1  0
 42 43  2  0
 42 44  1  0
 44 45  1  0
 45 46  2  0
 46 47  1  0
 47 48  2  0
 48 49  1  0
 49 50  2  0
 50 51  1  0
 51 52  2  0
 52 53  1  0
 53 54  2  0
 54 55  1  0
 55 56  2  0
 18 57  1  0
 57 58  2  0
 14 59  1  0
 59 60  2  0
 59 61  1  0
 61 62  1  0
 62 63  2  0
 63 64  1  0
 64 65  2  0
 65 66  1  0
 66 67  2  0
 67 68  1  0
 68 69  2  0
 69 70  1  0
 70 71  2  0
 71 72  1  0
 72 73  2  0
 12 74  2  0
  6 75  1  0
 75 76  2  0
 76 77  1  0
 77 78  3  0
 76  3  1  0
 74  8  1  0
 58 15  1  0
 73 59  1  0
 24 22  1  0
 41 25  1  0
 56 42  1  0
 67 62  1  0
 73 68  1  0
 40 31  1  0
 50 45  1  0
 56 51  1  0
M  END
>  <Candidate_ID>  (71) 
CAND_R2_071

>  <Candidate_Name>  (71) 
PBD-NH-glycidyl

>  <Parent_Seed_ID>  (71) 
TRAIN_020

>  <Parent_Name>  (71) 
PBD

>  <Transformation_Code>  (71) 
NH_glycidyl

>  <Design_Family>  (71) 
P-N

>  <Preparation_Type>  (71) 
Co-curing

>  <Synthesis_Level>  (71) 
B

>  <Parent_Tanimoto_r3>  (71) 
0.7280701754385965

>  <Max_Train_Tanimoto_r3>  (71) 
0.7280701754385965

>  <Risk_Flags>  (71) 
none

$$$$
CAND_R2_072 | PBD-NH-glycidyl-all
     RDKit          2D

 82 94  0  0  0  0  0  0  0  0999 V2000
   -8.3354   -4.7375    0.0000 N   0  0  0  0  0  0  0  0  0  0  0  0
   -6.9258   -5.2506    0.0000 C   0  0  0  0  0  0  0  0  0  0  0  0
   -5.5163   -5.7636    0.0000 C   0  0  0  0  0  0  0  0  0  0  0  0
   -4.3672   -4.7994    0.0000 C   0  0  0  0  0  0  0  0  0  0  0  0
   -2.9577   -5.3124    0.0000 C   0  0  0  0  0  0  0  0  0  0  0  0
   -2.6972   -6.7897    0.0000 C   0  0  0  0  0  0  0  0  0  0  0  0
   -1.2877   -7.3027    0.0000 O   0  0  0  0  0  0  0  0  0  0  0  0
   -1.0272   -8.7799    0.0000 C   0  0  0  0  0  0  0  0  0  0  0  0
   -2.1763   -9.7441    0.0000 C   0  0  0  0  0  0  0  0  0  0  0  0
   -1.9158  -11.2213    0.0000 C   0  0  0  0  0  0  0  0  0  0  0  0
   -0.5062  -11.7343    0.0000 C   0  0  0  0  0  0  0  0  0  0  0  0
    0.6428  -10.7701    0.0000 C   0  0  0  0  0  0  0  0  0  0  0  0
    2.0524  -11.2832    0.0000 N   0  0  0  0  0  0  0  0  0  0  0  0
    2.3128  -12.7604    0.0000 C   0  0  0  0  0  0  0  0  0  0  0  0
    1.1638  -13.7246    0.0000 C   0  0  0  0  0  0  0  0  0  0  0  0
    0.6507  -15.1341    0.0000 C   0  0  0  0  0  0  0  0  0  0  0  0
   -0.3134  -13.9850    0.0000 O   0  0  0  0  0  0  0  0  0  0  0  0
    3.2014  -10.3190    0.0000 C   0  0  0  0  0  0  0  0  0  0  0  0
    2.9410   -8.8418    0.0000 C   0  0  0  0  0  0  0  0  0  0  0  0
    4.0900   -7.8776    0.0000 C   0  0  0  0  0  0  0  0  0  0  0  0
    3.8296   -6.4004    0.0000 C   0  0  0  0  0  0  0  0  0  0  0  0
    2.4200   -5.8874    0.0000 C   0  0  0  0  0  0  0  0  0  0  0  0
    2.1595   -4.4101    0.0000 C   0  0  0  0  0  0  0  0  0  0  0  0
    0.7500   -3.8971    0.0000 N   0  0  0  0  0  0  0  0  0  0  0  0
   -0.3991   -4.8613    0.0000 C   0  0  0  0  0  0  0  0  0  0  0  0
   -1.8086   -4.3483    0.0000 C   0  0  0  0  0  0  0  0  0  0  0  0
   -3.2858   -4.6087    0.0000 C   0  0  0  0  0  0  0  0  0  0  0  0
   -2.7728   -3.1992    0.0000 O   0  0  0  0  0  0  0  0  0  0  0  0
    0.4895   -2.4199    0.0000 C   0  0  0  0  0  0  0  0  0  0  0  0
   -0.9200   -1.9069    0.0000 C   0  0  0  0  0  0  0  0  0  0  0  0
   -1.1805   -0.4297    0.0000 C   0  0  0  0  0  0  0  0  0  0  0  0
   -0.0314    0.5345    0.0000 C   0  0  0  0  0  0  0  0  0  0  0  0
    1.3781    0.0215    0.0000 C   0  0  0  0  0  0  0  0  0  0  0  0
    2.5272    0.9857    0.0000 O   0  0  0  0  0  0  0  0  0  0  0  0
    2.2667    2.4629    0.0000 C   0  0  0  0  0  0  0  0  0  0  0  0
    0.8572    2.9759    0.0000 C   0  0  0  0  0  0  0  0  0  0  0  0
    0.5967    4.4531    0.0000 C   0  0  0  0  0  0  0  0  0  0  0  0
    1.7458    5.4173    0.0000 C   0  0  0  0  0  0  0  0  0  0  0  0
    1.4853    6.8945    0.0000 C   0  0  0  0  0  0  0  0  0  0  0  0
    1.2248    8.3717    0.0000 N   0  0  0  0  0  0  0  0  0  0  0  0
    3.1553    4.9043    0.0000 C   0  0  0  0  0  0  0  0  0  0  0  0
    4.3044    5.8685    0.0000 C   0  0  0  0  0  0  0  0  0  0  0  0
    5.4534    6.8326    0.0000 N   0  0  0  0  0  0  0  0  0  0  0  0
    3.4158    3.4271    0.0000 C   0  0  0  0  0  0  0  0  0  0  0  0
    1.6386   -1.4557    0.0000 C   0  0  0  0  0  0  0  0  0  0  0  0
    3.3086   -3.4460    0.0000 P   0  0  0  0  0  0  0  0  0  0  0  0
    2.1595   -2.4818    0.0000 O   0  0  0  0  0  0  0  0  0  0  0  0
    4.0586   -4.7450    0.0000 O   0  0  0  0  0  0  0  0  0  0  0  0
    5.5586   -4.7450    0.0000 C   0  0  0  0  0  0  0  0  0  0  0  0
    6.3086   -6.0440    0.0000 C   0  0  0  0  0  0  0  0  0  0  0  0
    7.8086   -6.0440    0.0000 C   0  0  0  0  0  0  0  0  0  0  0  0
    8.5586   -4.7450    0.0000 C   0  0  0  0  0  0  0  0  0  0  0  0
    7.8086   -3.4460    0.0000 C   0  0  0  0  0  0  0  0  0  0  0  0
    6.3086   -3.4460    0.0000 C   0  0  0  0  0  0  0  0  0  0  0  0
    5.5586   -2.1469    0.0000 C   0  0  0  0  0  0  0  0  0  0  0  0
    6.3086   -0.8479    0.0000 C   0  0  0  0  0  0  0  0  0  0  0  0
    5.5586    0.4512    0.0000 C   0  0  0  0  0  0  0  0  0  0  0  0
    4.0586    0.4512    0.0000 C   0  0  0  0  0  0  0  0  0  0  0  0
    3.3086   -0.8479    0.0000 C   0  0  0  0  0  0  0  0  0  0  0  0
    4.0586   -2.1469    0.0000 C   0  0  0  0  0  0  0  0  0  0  0  0
    1.2709   -6.8515    0.0000 C   0  0  0  0  0  0  0  0  0  0  0  0
    1.5314   -8.3287    0.0000 C   0  0  0  0  0  0  0  0  0  0  0  0
    4.6110  -10.8320    0.0000 P   0  0  0  0  0  0  0  0  0  0  0  0
    4.8714   -9.3548    0.0000 O   0  0  0  0  0  0  0  0  0  0  0  0
    3.8610  -12.1311    0.0000 O   0  0  0  0  0  0  0  0  0  0  0  0
    4.6110  -13.4301    0.0000 C   0  0  0  0  0  0  0  0  0  0  0  0
    3.8610  -14.7291    0.0000 C   0  0  0  0  0  0  0  0  0  0  0  0
    4.6110  -16.0282    0.0000 C   0  0  0  0  0  0  0  0  0  0  0  0
    6.1110  -16.0282    0.0000 C   0  0  0  0  0  0  0  0  0  0  0  0
    6.8610  -14.7291    0.0000 C   0  0  0  0  0  0  0  0  0  0  0  0
    6.1110  -13.4301    0.0000 C   0  0  0  0  0  0  0  0  0  0  0  0
    6.8610  -12.1311    0.0000 C   0  0  0  0  0  0  0  0  0  0  0  0
    8.3610  -12.1311    0.0000 C   0  0  0  0  0  0  0  0  0  0  0  0
    9.1110  -10.8320    0.0000 C   0  0  0  0  0  0  0  0  0  0  0  0
    8.3610   -9.5330    0.0000 C   0  0  0  0  0  0  0  0  0  0  0  0
    6.8610   -9.5330    0.0000 C   0  0  0  0  0  0  0  0  0  0  0  0
    6.1110  -10.8320    0.0000 C   0  0  0  0  0  0  0  0  0  0  0  0
    0.3824   -9.2929    0.0000 C   0  0  0  0  0  0  0  0  0  0  0  0
   -3.8463   -7.7538    0.0000 C   0  0  0  0  0  0  0  0  0  0  0  0
   -5.2558   -7.2408    0.0000 C   0  0  0  0  0  0  0  0  0  0  0  0
   -6.4049   -8.2050    0.0000 C   0  0  0  0  0  0  0  0  0  0  0  0
   -7.5539   -9.1692    0.0000 N   0  0  0  0  0  0  0  0  0  0  0  0
  1  2  3  0
  2  3  1  0
  3  4  2  0
  4  5  1  0
  5  6  2  0
  6  7  1  0
  7  8  1  0
  8  9  2  0
  9 10  1  0
 10 11  2  0
 11 12  1  0
 12 13  1  0
 13 14  1  0
 14 15  1  0
 15 16  1  0
 16 17  1  0
 13 18  1  0
 18 19  1  0
 19 20  2  0
 20 21  1  0
 21 22  2  0
 22 23  1  0
 23 24  1  0
 24 25  1  0
 25 26  1  0
 26 27  1  0
 27 28  1  0
 24 29  1  0
 29 30  2  0
 30 31  1  0
 31 32  2  0
 32 33  1  0
 33 34  1  0
 34 35  1  0
 35 36  2  0
 36 37  1  0
 37 38  2  0
 38 39  1  0
 39 40  3  0
 38 41  1  0
 41 42  1  0
 42 43  3  0
 41 44  2  0
 33 45  2  0
 23 46  1  0
 46 47  2  0
 46 48  1  0
 48 49  1  0
 49 50  2  0
 50 51  1  0
 51 52  2  0
 52 53  1  0
 53 54  2  0
 54 55  1  0
 55 56  2  0
 56 57  1  0
 57 58  2  0
 58 59  1  0
 59 60  2  0
 22 61  1  0
 61 62  2  0
 18 63  1  0
 63 64  2  0
 63 65  1  0
 65 66  1  0
 66 67  2  0
 67 68  1  0
 68 69  2  0
 69 70  1  0
 70 71  2  0
 71 72  1  0
 72 73  2  0
 73 74  1  0
 74 75  2  0
 75 76  1  0
 76 77  2  0
 12 78  2  0
  6 79  1  0
 79 80  2  0
 80 81  1  0
 81 82  3  0
 80  3  1  0
 78  8  1  0
 17 15  1  0
 62 19  1  0
 77 63  1  0
 28 26  1  0
 45 29  1  0
 60 46  1  0
 71 66  1  0
 77 72  1  0
 44 35  1  0
 54 49  1  0
 60 55  1  0
M  END
>  <Candidate_ID>  (72) 
CAND_R2_072

>  <Candidate_Name>  (72) 
PBD-NH-glycidyl-all

>  <Parent_Seed_ID>  (72) 
TRAIN_020

>  <Parent_Name>  (72) 
PBD

>  <Transformation_Code>  (72) 
NH_glycidyl_all

>  <Design_Family>  (72) 
P-N

>  <Preparation_Type>  (72) 
Co-curing

>  <Synthesis_Level>  (72) 
C

>  <Parent_Tanimoto_r3>  (72) 
0.5350877192982456

>  <Max_Train_Tanimoto_r3>  (72) 
0.5350877192982456

>  <Risk_Flags>  (72) 
large structural change from parent; candidate may be outside strict in-domain threshold; exploratory only; excluded from formal screening

$$$$
CAND_R2_073 | TDCA-DOPO-2-amino
     RDKit          2D

 69 79  0  0  0  0  0  0  0  0999 V2000
    8.1148  -11.3688    0.0000 N   0  0  0  0  0  0  0  0  0  0  0  0
    6.7445  -11.9790    0.0000 C   0  0  0  0  0  0  0  0  0  0  0  0
    6.2314  -13.3885    0.0000 C   0  0  0  0  0  0  0  0  0  0  0  0
    4.7542  -13.6490    0.0000 C   0  0  0  0  0  0  0  0  0  0  0  0
    3.7900  -12.4999    0.0000 C   0  0  0  0  0  0  0  0  0  0  0  0
    2.3128  -12.7604    0.0000 P   0  0  0  0  0  0  0  0  0  0  0  0
    2.5733  -14.2376    0.0000 O   0  0  0  0  0  0  0  0  0  0  0  0
    2.0524  -11.2832    0.0000 O   0  0  0  0  0  0  0  0  0  0  0  0
    3.2014  -10.3190    0.0000 C   0  0  0  0  0  0  0  0  0  0  0  0
    2.9410   -8.8418    0.0000 C   0  0  0  0  0  0  0  0  0  0  0  0
    4.0900   -7.8776    0.0000 C   0  0  0  0  0  0  0  0  0  0  0  0
    3.8296   -6.4004    0.0000 C   0  0  0  0  0  0  0  0  0  0  0  0
    2.4200   -5.8874    0.0000 C   0  0  0  0  0  0  0  0  0  0  0  0
    2.1595   -4.4101    0.0000 C   0  0  0  0  0  0  0  0  0  0  0  0
    0.7500   -3.8971    0.0000 O   0  0  0  0  0  0  0  0  0  0  0  0
   -0.3991   -4.8613    0.0000 P   0  0  0  0  0  0  0  0  0  0  0  0
   -1.5481   -5.8255    0.0000 O   0  0  0  0  0  0  0  0  0  0  0  0
   -1.3632   -3.7122    0.0000 C   0  0  0  0  0  0  0  0  0  0  0  0
   -2.8405   -3.9727    0.0000 C   0  0  0  0  0  0  0  0  0  0  0  0
   -3.8046   -2.8236    0.0000 C   0  0  0  0  0  0  0  0  0  0  0  0
   -3.2916   -1.4141    0.0000 C   0  0  0  0  0  0  0  0  0  0  0  0
   -1.8144   -1.1536    0.0000 C   0  0  0  0  0  0  0  0  0  0  0  0
   -0.8502   -2.3027    0.0000 C   0  0  0  0  0  0  0  0  0  0  0  0
    0.5651   -6.0104    0.0000 C   0  0  0  0  0  0  0  0  0  0  0  0
    0.0521   -7.4199    0.0000 C   0  0  0  0  0  0  0  0  0  0  0  0
    1.0163   -8.5690    0.0000 C   0  0  0  0  0  0  0  0  0  0  0  0
    2.4935   -8.3085    0.0000 C   0  0  0  0  0  0  0  0  0  0  0  0
    3.0065   -6.8990    0.0000 C   0  0  0  0  0  0  0  0  0  0  0  0
    2.0423   -5.7499    0.0000 C   0  0  0  0  0  0  0  0  0  0  0  0
    3.3086   -3.4460    0.0000 P   0  0  0  0  0  0  0  0  0  0  0  0
    4.0586   -4.7450    0.0000 O   0  0  0  0  0  0  0  0  0  0  0  0
    2.1595   -2.4818    0.0000 O   0  0  0  0  0  0  0  0  0  0  0  0
    2.4200   -1.0046    0.0000 C   0  0  0  0  0  0  0  0  0  0  0  0
    1.2709   -0.0404    0.0000 C   0  0  0  0  0  0  0  0  0  0  0  0
    1.5314    1.4368    0.0000 C   0  0  0  0  0  0  0  0  0  0  0  0
    2.9410    1.9499    0.0000 C   0  0  0  0  0  0  0  0  0  0  0  0
    4.0900    0.9857    0.0000 C   0  0  0  0  0  0  0  0  0  0  0  0
    3.8296   -0.4915    0.0000 C   0  0  0  0  0  0  0  0  0  0  0  0
    4.9786   -1.4557    0.0000 C   0  0  0  0  0  0  0  0  0  0  0  0
    6.3882   -0.9427    0.0000 C   0  0  0  0  0  0  0  0  0  0  0  0
    7.5372   -1.9069    0.0000 C   0  0  0  0  0  0  0  0  0  0  0  0
    7.2768   -3.3841    0.0000 C   0  0  0  0  0  0  0  0  0  0  0  0
    5.8672   -3.8971    0.0000 C   0  0  0  0  0  0  0  0  0  0  0  0
    4.7181   -2.9329    0.0000 C   0  0  0  0  0  0  0  0  0  0  0  0
    1.2709   -6.8515    0.0000 C   0  0  0  0  0  0  0  0  0  0  0  0
    1.5314   -8.3287    0.0000 C   0  0  0  0  0  0  0  0  0  0  0  0
    4.6110  -10.8320    0.0000 P   0  0  0  0  0  0  0  0  0  0  0  0
    4.8714   -9.3548    0.0000 O   0  0  0  0  0  0  0  0  0  0  0  0
    3.8610  -12.1311    0.0000 O   0  0  0  0  0  0  0  0  0  0  0  0
    4.6110  -13.4301    0.0000 C   0  0  0  0  0  0  0  0  0  0  0  0
    3.8610  -14.7291    0.0000 C   0  0  0  0  0  0  0  0  0  0  0  0
    4.6110  -16.0282    0.0000 C   0  0  0  0  0  0  0  0  0  0  0  0
    6.1110  -16.0282    0.0000 C   0  0  0  0  0  0  0  0  0  0  0  0
    6.8610  -14.7291    0.0000 C   0  0  0  0  0  0  0  0  0  0  0  0
    6.1110  -13.4301    0.0000 C   0  0  0  0  0  0  0  0  0  0  0  0
    6.8610  -12.1311    0.0000 C   0  0  0  0  0  0  0  0  0  0  0  0
    8.3610  -12.1311    0.0000 C   0  0  0  0  0  0  0  0  0  0  0  0
    9.1110  -10.8320    0.0000 C   0  0  0  0  0  0  0  0  0  0  0  0
    8.3610   -9.5330    0.0000 C   0  0  0  0  0  0  0  0  0  0  0  0
    6.8610   -9.5330    0.0000 C   0  0  0  0  0  0  0  0  0  0  0  0
    6.1110  -10.8320    0.0000 C   0  0  0  0  0  0  0  0  0  0  0  0
    0.8356  -13.0209    0.0000 C   0  0  0  0  0  0  0  0  0  0  0  0
   -0.1286  -11.8718    0.0000 C   0  0  0  0  0  0  0  0  0  0  0  0
   -1.6058  -12.1323    0.0000 C   0  0  0  0  0  0  0  0  0  0  0  0
   -2.1188  -13.5418    0.0000 C   0  0  0  0  0  0  0  0  0  0  0  0
   -1.1546  -14.6909    0.0000 C   0  0  0  0  0  0  0  0  0  0  0  0
    0.3226  -14.4304    0.0000 C   0  0  0  0  0  0  0  0  0  0  0  0
    4.3031  -11.0904    0.0000 C   0  0  0  0  0  0  0  0  0  0  0  0
    5.7803  -10.8299    0.0000 C   0  0  0  0  0  0  0  0  0  0  0  0
  1  2  1  0
  2  3  2  0
  3  4  1  0
  4  5  2  0
  5  6  1  0
  6  7  2  0
  6  8  1  0
  8  9  1  0
  9 10  1  0
 10 11  2  0
 11 12  1  0
 12 13  2  0
 13 14  1  0
 14 15  1  0
 15 16  1  0
 16 17  2  0
 16 18  1  0
 18 19  2  0
 19 20  1  0
 20 21  2  0
 21 22  1  0
 22 23  2  0
 16 24  1  0
 24 25  2  0
 25 26  1  0
 26 27  2  0
 27 28  1  0
 28 29  2  0
 14 30  1  0
 30 31  2  0
 30 32  1  0
 32 33  1  0
 33 34  2  0
 34 35  1  0
 35 36  2  0
 36 37  1  0
 37 38  2  0
 38 39  1  0
 39 40  2  0
 40 41  1  0
 41 42  2  0
 42 43  1  0
 43 44  2  0
 13 45  1  0
 45 46  2  0
  9 47  1  0
 47 48  2  0
 47 49  1  0
 49 50  1  0
 50 51  2  0
 51 52  1  0
 52 53  2  0
 53 54  1  0
 54 55  2  0
 55 56  1  0
 56 57  2  0
 57 58  1  0
 58 59  2  0
 59 60  1  0
 60 61  2  0
  6 62  1  0
 62 63  2  0
 63 64  1  0
 64 65  2  0
 65 66  1  0
 66 67  2  0
  5 68  1  0
 68 69  2  0
 69  2  1  0
 46 10  1  0
 61 47  1  0
 67 62  1  0
 23 18  1  0
 29 24  1  0
 44 30  1  0
 55 50  1  0
 61 56  1  0
 38 33  1  0
 44 39  1  0
M  END
>  <Candidate_ID>  (73) 
CAND_R2_073

>  <Candidate_Name>  (73) 
TDCA-DOPO-2-amino

>  <Parent_Seed_ID>  (73) 
TRAIN_136

>  <Parent_Name>  (73) 
TDCA-DOPO-2

>  <Transformation_Code>  (73) 
amino

>  <Design_Family>  (73) 
P-N

>  <Preparation_Type>  (73) 
Co-curing

>  <Synthesis_Level>  (73) 
B

>  <Parent_Tanimoto_r3>  (73) 
0.8591549295774648

>  <Max_Train_Tanimoto_r3>  (73) 
0.8591549295774648

>  <Risk_Flags>  (73) 
none

$$$$
CAND_R2_074 | TDCA-DOPO-2-hydroxy
     RDKit          2D

 69 79  0  0  0  0  0  0  0  0999 V2000
    2.5733  -14.2376    0.0000 O   0  0  0  0  0  0  0  0  0  0  0  0
    2.3128  -12.7604    0.0000 P   0  0  0  0  0  0  0  0  0  0  0  0
    2.0524  -11.2832    0.0000 O   0  0  0  0  0  0  0  0  0  0  0  0
    3.2014  -10.3190    0.0000 C   0  0  0  0  0  0  0  0  0  0  0  0
    2.9410   -8.8418    0.0000 C   0  0  0  0  0  0  0  0  0  0  0  0
    4.0900   -7.8776    0.0000 C   0  0  0  0  0  0  0  0  0  0  0  0
    3.8296   -6.4004    0.0000 C   0  0  0  0  0  0  0  0  0  0  0  0
    2.4200   -5.8874    0.0000 C   0  0  0  0  0  0  0  0  0  0  0  0
    2.1595   -4.4101    0.0000 C   0  0  0  0  0  0  0  0  0  0  0  0
    0.7500   -3.8971    0.0000 O   0  0  0  0  0  0  0  0  0  0  0  0
   -0.3991   -4.8613    0.0000 P   0  0  0  0  0  0  0  0  0  0  0  0
   -1.5481   -5.8255    0.0000 O   0  0  0  0  0  0  0  0  0  0  0  0
    0.5651   -6.0104    0.0000 C   0  0  0  0  0  0  0  0  0  0  0  0
    0.0521   -7.4199    0.0000 C   0  0  0  0  0  0  0  0  0  0  0  0
    1.0163   -8.5690    0.0000 C   0  0  0  0  0  0  0  0  0  0  0  0
    2.4935   -8.3085    0.0000 C   0  0  0  0  0  0  0  0  0  0  0  0
    3.0065   -6.8990    0.0000 C   0  0  0  0  0  0  0  0  0  0  0  0
    2.0423   -5.7499    0.0000 C   0  0  0  0  0  0  0  0  0  0  0  0
   -1.3632   -3.7122    0.0000 C   0  0  0  0  0  0  0  0  0  0  0  0
   -0.8502   -2.3027    0.0000 C   0  0  0  0  0  0  0  0  0  0  0  0
   -1.8144   -1.1536    0.0000 C   0  0  0  0  0  0  0  0  0  0  0  0
   -3.2916   -1.4141    0.0000 C   0  0  0  0  0  0  0  0  0  0  0  0
   -4.2558   -0.2650    0.0000 O   0  0  0  0  0  0  0  0  0  0  0  0
   -3.8046   -2.8236    0.0000 C   0  0  0  0  0  0  0  0  0  0  0  0
   -2.8405   -3.9727    0.0000 C   0  0  0  0  0  0  0  0  0  0  0  0
    3.3086   -3.4460    0.0000 P   0  0  0  0  0  0  0  0  0  0  0  0
    4.0586   -4.7450    0.0000 O   0  0  0  0  0  0  0  0  0  0  0  0
    2.1595   -2.4818    0.0000 O   0  0  0  0  0  0  0  0  0  0  0  0
    2.4200   -1.0046    0.0000 C   0  0  0  0  0  0  0  0  0  0  0  0
    1.2709   -0.0404    0.0000 C   0  0  0  0  0  0  0  0  0  0  0  0
    1.5314    1.4368    0.0000 C   0  0  0  0  0  0  0  0  0  0  0  0
    2.9410    1.9499    0.0000 C   0  0  0  0  0  0  0  0  0  0  0  0
    4.0900    0.9857    0.0000 C   0  0  0  0  0  0  0  0  0  0  0  0
    3.8296   -0.4915    0.0000 C   0  0  0  0  0  0  0  0  0  0  0  0
    4.9786   -1.4557    0.0000 C   0  0  0  0  0  0  0  0  0  0  0  0
    6.3882   -0.9427    0.0000 C   0  0  0  0  0  0  0  0  0  0  0  0
    7.5372   -1.9069    0.0000 C   0  0  0  0  0  0  0  0  0  0  0  0
    7.2768   -3.3841    0.0000 C   0  0  0  0  0  0  0  0  0  0  0  0
    5.8672   -3.8971    0.0000 C   0  0  0  0  0  0  0  0  0  0  0  0
    4.7181   -2.9329    0.0000 C   0  0  0  0  0  0  0  0  0  0  0  0
    1.2709   -6.8515    0.0000 C   0  0  0  0  0  0  0  0  0  0  0  0
    1.5314   -8.3287    0.0000 C   0  0  0  0  0  0  0  0  0  0  0  0
    4.6110  -10.8320    0.0000 P   0  0  0  0  0  0  0  0  0  0  0  0
    4.8714   -9.3548    0.0000 O   0  0  0  0  0  0  0  0  0  0  0  0
    3.8610  -12.1311    0.0000 O   0  0  0  0  0  0  0  0  0  0  0  0
    4.6110  -13.4301    0.0000 C   0  0  0  0  0  0  0  0  0  0  0  0
    3.8610  -14.7291    0.0000 C   0  0  0  0  0  0  0  0  0  0  0  0
    4.6110  -16.0282    0.0000 C   0  0  0  0  0  0  0  0  0  0  0  0
    6.1110  -16.0282    0.0000 C   0  0  0  0  0  0  0  0  0  0  0  0
    6.8610  -14.7291    0.0000 C   0  0  0  0  0  0  0  0  0  0  0  0
    6.1110  -13.4301    0.0000 C   0  0  0  0  0  0  0  0  0  0  0  0
    6.8610  -12.1311    0.0000 C   0  0  0  0  0  0  0  0  0  0  0  0
    8.3610  -12.1311    0.0000 C   0  0  0  0  0  0  0  0  0  0  0  0
    9.1110  -10.8320    0.0000 C   0  0  0  0  0  0  0  0  0  0  0  0
    8.3610   -9.5330    0.0000 C   0  0  0  0  0  0  0  0  0  0  0  0
    6.8610   -9.5330    0.0000 C   0  0  0  0  0  0  0  0  0  0  0  0
    6.1110  -10.8320    0.0000 C   0  0  0  0  0  0  0  0  0  0  0  0
    0.8356  -13.0209    0.0000 C   0  0  0  0  0  0  0  0  0  0  0  0
   -0.1286  -11.8718    0.0000 C   0  0  0  0  0  0  0  0  0  0  0  0
   -1.6058  -12.1323    0.0000 C   0  0  0  0  0  0  0  0  0  0  0  0
   -2.1188  -13.5418    0.0000 C   0  0  0  0  0  0  0  0  0  0  0  0
   -1.1546  -14.6909    0.0000 C   0  0  0  0  0  0  0  0  0  0  0  0
    0.3226  -14.4304    0.0000 C   0  0  0  0  0  0  0  0  0  0  0  0
    3.7900  -12.4999    0.0000 C   0  0  0  0  0  0  0  0  0  0  0  0
    4.7542  -13.6490    0.0000 C   0  0  0  0  0  0  0  0  0  0  0  0
    6.2314  -13.3885    0.0000 C   0  0  0  0  0  0  0  0  0  0  0  0
    6.7445  -11.9790    0.0000 C   0  0  0  0  0  0  0  0  0  0  0  0
    5.7803  -10.8299    0.0000 C   0  0  0  0  0  0  0  0  0  0  0  0
    4.3031  -11.0904    0.0000 C   0  0  0  0  0  0  0  0  0  0  0  0
  1  2  2  0
  2  3  1  0
  3  4  1  0
  4  5  1  0
  5  6  2  0
  6  7  1  0
  7  8  2  0
  8  9  1  0
  9 10  1  0
 10 11  1  0
 11 12  2  0
 11 13  1  0
 13 14  2  0
 14 15  1  0
 15 16  2  0
 16 17  1  0
 17 18  2  0
 11 19  1  0
 19 20  2  0
 20 21  1  0
 21 22  2  0
 22 23  1  0
 22 24  1  0
 24 25  2  0
  9 26  1  0
 26 27  2  0
 26 28  1  0
 28 29  1  0
 29 30  2  0
 30 31  1  0
 31 32  2  0
 32 33  1  0
 33 34  2  0
 34 35  1  0
 35 36  2  0
 36 37  1  0
 37 38  2  0
 38 39  1  0
 39 40  2  0
  8 41  1  0
 41 42  2  0
  4 43  1  0
 43 44  2  0
 43 45  1  0
 45 46  1  0
 46 47  2  0
 47 48  1  0
 48 49  2  0
 49 50  1  0
 50 51  2  0
 51 52  1  0
 52 53  2  0
 53 54  1  0
 54 55  2  0
 55 56  1  0
 56 57  2  0
  2 58  1  0
 58 59  2  0
 59 60  1  0
 60 61  2  0
 61 62  1  0
 62 63  2  0
  2 64  1  0
 64 65  2  0
 65 66  1  0
 66 67  2  0
 67 68  1  0
 68 69  2  0
 42  5  1  0
 57 43  1  0
 63 58  1  0
 69 64  1  0
 18 13  1  0
 25 19  1  0
 40 26  1  0
 51 46  1  0
 57 52  1  0
 34 29  1  0
 40 35  1  0
M  END
>  <Candidate_ID>  (74) 
CAND_R2_074

>  <Candidate_Name>  (74) 
TDCA-DOPO-2-hydroxy

>  <Parent_Seed_ID>  (74) 
TRAIN_136

>  <Parent_Name>  (74) 
TDCA-DOPO-2

>  <Transformation_Code>  (74) 
hydroxy

>  <Design_Family>  (74) 
P-only

>  <Preparation_Type>  (74) 
Additive

>  <Synthesis_Level>  (74) 
B

>  <Parent_Tanimoto_r3>  (74) 
0.8591549295774648

>  <Max_Train_Tanimoto_r3>  (74) 
0.8591549295774648

>  <Risk_Flags>  (74) 
none

$$$$
CAND_R2_075 | TDCA-DOPO-2-hydroxymethyl
     RDKit          2D

 70 80  0  0  0  0  0  0  0  0999 V2000
    2.5733  -14.2376    0.0000 O   0  0  0  0  0  0  0  0  0  0  0  0
    2.3128  -12.7604    0.0000 P   0  0  0  0  0  0  0  0  0  0  0  0
    2.0524  -11.2832    0.0000 O   0  0  0  0  0  0  0  0  0  0  0  0
    3.2014  -10.3190    0.0000 C   0  0  0  0  0  0  0  0  0  0  0  0
    2.9410   -8.8418    0.0000 C   0  0  0  0  0  0  0  0  0  0  0  0
    4.0900   -7.8776    0.0000 C   0  0  0  0  0  0  0  0  0  0  0  0
    3.8296   -6.4004    0.0000 C   0  0  0  0  0  0  0  0  0  0  0  0
    2.4200   -5.8874    0.0000 C   0  0  0  0  0  0  0  0  0  0  0  0
    2.1595   -4.4101    0.0000 C   0  0  0  0  0  0  0  0  0  0  0  0
    0.7500   -3.8971    0.0000 O   0  0  0  0  0  0  0  0  0  0  0  0
   -0.3991   -4.8613    0.0000 P   0  0  0  0  0  0  0  0  0  0  0  0
   -1.5481   -5.8255    0.0000 O   0  0  0  0  0  0  0  0  0  0  0  0
    0.5651   -6.0104    0.0000 C   0  0  0  0  0  0  0  0  0  0  0  0
    0.0521   -7.4199    0.0000 C   0  0  0  0  0  0  0  0  0  0  0  0
    1.0163   -8.5690    0.0000 C   0  0  0  0  0  0  0  0  0  0  0  0
    2.4935   -8.3085    0.0000 C   0  0  0  0  0  0  0  0  0  0  0  0
    3.0065   -6.8990    0.0000 C   0  0  0  0  0  0  0  0  0  0  0  0
    2.0423   -5.7499    0.0000 C   0  0  0  0  0  0  0  0  0  0  0  0
   -1.3632   -3.7122    0.0000 C   0  0  0  0  0  0  0  0  0  0  0  0
   -0.8502   -2.3027    0.0000 C   0  0  0  0  0  0  0  0  0  0  0  0
   -1.8144   -1.1536    0.0000 C   0  0  0  0  0  0  0  0  0  0  0  0
   -3.2916   -1.4141    0.0000 C   0  0  0  0  0  0  0  0  0  0  0  0
   -4.2558   -0.2650    0.0000 C   0  0  0  0  0  0  0  0  0  0  0  0
   -3.7428    1.1445    0.0000 O   0  0  0  0  0  0  0  0  0  0  0  0
   -3.8046   -2.8236    0.0000 C   0  0  0  0  0  0  0  0  0  0  0  0
   -2.8405   -3.9727    0.0000 C   0  0  0  0  0  0  0  0  0  0  0  0
    3.3086   -3.4460    0.0000 P   0  0  0  0  0  0  0  0  0  0  0  0
    4.0586   -4.7450    0.0000 O   0  0  0  0  0  0  0  0  0  0  0  0
    2.1595   -2.4818    0.0000 O   0  0  0  0  0  0  0  0  0  0  0  0
    2.4200   -1.0046    0.0000 C   0  0  0  0  0  0  0  0  0  0  0  0
    1.2709   -0.0404    0.0000 C   0  0  0  0  0  0  0  0  0  0  0  0
    1.5314    1.4368    0.0000 C   0  0  0  0  0  0  0  0  0  0  0  0
    2.9410    1.9499    0.0000 C   0  0  0  0  0  0  0  0  0  0  0  0
    4.0900    0.9857    0.0000 C   0  0  0  0  0  0  0  0  0  0  0  0
    3.8296   -0.4915    0.0000 C   0  0  0  0  0  0  0  0  0  0  0  0
    4.9786   -1.4557    0.0000 C   0  0  0  0  0  0  0  0  0  0  0  0
    6.3882   -0.9427    0.0000 C   0  0  0  0  0  0  0  0  0  0  0  0
    7.5372   -1.9069    0.0000 C   0  0  0  0  0  0  0  0  0  0  0  0
    7.2768   -3.3841    0.0000 C   0  0  0  0  0  0  0  0  0  0  0  0
    5.8672   -3.8971    0.0000 C   0  0  0  0  0  0  0  0  0  0  0  0
    4.7181   -2.9329    0.0000 C   0  0  0  0  0  0  0  0  0  0  0  0
    1.2709   -6.8515    0.0000 C   0  0  0  0  0  0  0  0  0  0  0  0
    1.5314   -8.3287    0.0000 C   0  0  0  0  0  0  0  0  0  0  0  0
    4.6110  -10.8320    0.0000 P   0  0  0  0  0  0  0  0  0  0  0  0
    4.8714   -9.3548    0.0000 O   0  0  0  0  0  0  0  0  0  0  0  0
    3.8610  -12.1311    0.0000 O   0  0  0  0  0  0  0  0  0  0  0  0
    4.6110  -13.4301    0.0000 C   0  0  0  0  0  0  0  0  0  0  0  0
    3.8610  -14.7291    0.0000 C   0  0  0  0  0  0  0  0  0  0  0  0
    4.6110  -16.0282    0.0000 C   0  0  0  0  0  0  0  0  0  0  0  0
    6.1110  -16.0282    0.0000 C   0  0  0  0  0  0  0  0  0  0  0  0
    6.8610  -14.7291    0.0000 C   0  0  0  0  0  0  0  0  0  0  0  0
    6.1110  -13.4301    0.0000 C   0  0  0  0  0  0  0  0  0  0  0  0
    6.8610  -12.1311    0.0000 C   0  0  0  0  0  0  0  0  0  0  0  0
    8.3610  -12.1311    0.0000 C   0  0  0  0  0  0  0  0  0  0  0  0
    9.1110  -10.8320    0.0000 C   0  0  0  0  0  0  0  0  0  0  0  0
    8.3610   -9.5330    0.0000 C   0  0  0  0  0  0  0  0  0  0  0  0
    6.8610   -9.5330    0.0000 C   0  0  0  0  0  0  0  0  0  0  0  0
    6.1110  -10.8320    0.0000 C   0  0  0  0  0  0  0  0  0  0  0  0
    0.8356  -13.0209    0.0000 C   0  0  0  0  0  0  0  0  0  0  0  0
   -0.1286  -11.8718    0.0000 C   0  0  0  0  0  0  0  0  0  0  0  0
   -1.6058  -12.1323    0.0000 C   0  0  0  0  0  0  0  0  0  0  0  0
   -2.1188  -13.5418    0.0000 C   0  0  0  0  0  0  0  0  0  0  0  0
   -1.1546  -14.6909    0.0000 C   0  0  0  0  0  0  0  0  0  0  0  0
    0.3226  -14.4304    0.0000 C   0  0  0  0  0  0  0  0  0  0  0  0
    3.7900  -12.4999    0.0000 C   0  0  0  0  0  0  0  0  0  0  0  0
    4.7542  -13.6490    0.0000 C   0  0  0  0  0  0  0  0  0  0  0  0
    6.2314  -13.3885    0.0000 C   0  0  0  0  0  0  0  0  0  0  0  0
    6.7445  -11.9790    0.0000 C   0  0  0  0  0  0  0  0  0  0  0  0
    5.7803  -10.8299    0.0000 C   0  0  0  0  0  0  0  0  0  0  0  0
    4.3031  -11.0904    0.0000 C   0  0  0  0  0  0  0  0  0  0  0  0
  1  2  2  0
  2  3  1  0
  3  4  1  0
  4  5  1  0
  5  6  2  0
  6  7  1  0
  7  8  2  0
  8  9  1  0
  9 10  1  0
 10 11  1  0
 11 12  2  0
 11 13  1  0
 13 14  2  0
 14 15  1  0
 15 16  2  0
 16 17  1  0
 17 18  2  0
 11 19  1  0
 19 20  2  0
 20 21  1  0
 21 22  2  0
 22 23  1  0
 23 24  1  0
 22 25  1  0
 25 26  2  0
  9 27  1  0
 27 28  2  0
 27 29  1  0
 29 30  1  0
 30 31  2  0
 31 32  1  0
 32 33  2  0
 33 34  1  0
 34 35  2  0
 35 36  1  0
 36 37  2  0
 37 38  1  0
 38 39  2  0
 39 40  1  0
 40 41  2  0
  8 42  1  0
 42 43  2  0
  4 44  1  0
 44 45  2  0
 44 46  1  0
 46 47  1  0
 47 48  2  0
 48 49  1  0
 49 50  2  0
 50 51  1  0
 51 52  2  0
 52 53  1  0
 53 54  2  0
 54 55  1  0
 55 56  2  0
 56 57  1  0
 57 58  2  0
  2 59  1  0
 59 60  2  0
 60 61  1  0
 61 62  2  0
 62 63  1  0
 63 64  2  0
  2 65  1  0
 65 66  2  0
 66 67  1  0
 67 68  2  0
 68 69  1  0
 69 70  2  0
 43  5  1  0
 58 44  1  0
 64 59  1  0
 70 65  1  0
 18 13  1  0
 26 19  1  0
 41 27  1  0
 52 47  1  0
 58 53  1  0
 35 30  1  0
 41 36  1  0
M  END
>  <Candidate_ID>  (75) 
CAND_R2_075

>  <Candidate_Name>  (75) 
TDCA-DOPO-2-hydroxymethyl

>  <Parent_Seed_ID>  (75) 
TRAIN_136

>  <Parent_Name>  (75) 
TDCA-DOPO-2

>  <Transformation_Code>  (75) 
hydroxymethyl

>  <Design_Family>  (75) 
P-only

>  <Preparation_Type>  (75) 
Additive

>  <Synthesis_Level>  (75) 
B

>  <Parent_Tanimoto_r3>  (75) 
0.8243243243243243

>  <Max_Train_Tanimoto_r3>  (75) 
0.8243243243243243

>  <Risk_Flags>  (75) 
none

$$$$
CAND_R2_076 | TDCA-DOPO-2-carboxamide
     RDKit          2D

 71 81  0  0  0  0  0  0  0  0999 V2000
    9.1859  -12.8676    0.0000 N   0  0  0  0  0  0  0  0  0  0  0  0
    8.2217  -11.7185    0.0000 C   0  0  0  0  0  0  0  0  0  0  0  0
    8.3784  -10.2267    0.0000 O   0  0  0  0  0  0  0  0  0  0  0  0
    6.7445  -11.9790    0.0000 C   0  0  0  0  0  0  0  0  0  0  0  0
    6.2314  -13.3885    0.0000 C   0  0  0  0  0  0  0  0  0  0  0  0
    4.7542  -13.6490    0.0000 C   0  0  0  0  0  0  0  0  0  0  0  0
    3.7900  -12.4999    0.0000 C   0  0  0  0  0  0  0  0  0  0  0  0
    2.3128  -12.7604    0.0000 P   0  0  0  0  0  0  0  0  0  0  0  0
    2.5733  -14.2376    0.0000 O   0  0  0  0  0  0  0  0  0  0  0  0
    2.0524  -11.2832    0.0000 O   0  0  0  0  0  0  0  0  0  0  0  0
    3.2014  -10.3190    0.0000 C   0  0  0  0  0  0  0  0  0  0  0  0
    2.9410   -8.8418    0.0000 C   0  0  0  0  0  0  0  0  0  0  0  0
    4.0900   -7.8776    0.0000 C   0  0  0  0  0  0  0  0  0  0  0  0
    3.8296   -6.4004    0.0000 C   0  0  0  0  0  0  0  0  0  0  0  0
    2.4200   -5.8874    0.0000 C   0  0  0  0  0  0  0  0  0  0  0  0
    2.1595   -4.4101    0.0000 C   0  0  0  0  0  0  0  0  0  0  0  0
    0.7500   -3.8971    0.0000 O   0  0  0  0  0  0  0  0  0  0  0  0
   -0.3991   -4.8613    0.0000 P   0  0  0  0  0  0  0  0  0  0  0  0
   -1.5481   -5.8255    0.0000 O   0  0  0  0  0  0  0  0  0  0  0  0
   -1.3632   -3.7122    0.0000 C   0  0  0  0  0  0  0  0  0  0  0  0
   -2.8405   -3.9727    0.0000 C   0  0  0  0  0  0  0  0  0  0  0  0
   -3.8046   -2.8236    0.0000 C   0  0  0  0  0  0  0  0  0  0  0  0
   -3.2916   -1.4141    0.0000 C   0  0  0  0  0  0  0  0  0  0  0  0
   -1.8144   -1.1536    0.0000 C   0  0  0  0  0  0  0  0  0  0  0  0
   -0.8502   -2.3027    0.0000 C   0  0  0  0  0  0  0  0  0  0  0  0
    0.5651   -6.0104    0.0000 C   0  0  0  0  0  0  0  0  0  0  0  0
    0.0521   -7.4199    0.0000 C   0  0  0  0  0  0  0  0  0  0  0  0
    1.0163   -8.5690    0.0000 C   0  0  0  0  0  0  0  0  0  0  0  0
    2.4935   -8.3085    0.0000 C   0  0  0  0  0  0  0  0  0  0  0  0
    3.0065   -6.8990    0.0000 C   0  0  0  0  0  0  0  0  0  0  0  0
    2.0423   -5.7499    0.0000 C   0  0  0  0  0  0  0  0  0  0  0  0
    3.3086   -3.4460    0.0000 P   0  0  0  0  0  0  0  0  0  0  0  0
    4.0586   -4.7450    0.0000 O   0  0  0  0  0  0  0  0  0  0  0  0
    2.1595   -2.4818    0.0000 O   0  0  0  0  0  0  0  0  0  0  0  0
    2.4200   -1.0046    0.0000 C   0  0  0  0  0  0  0  0  0  0  0  0
    1.2709   -0.0404    0.0000 C   0  0  0  0  0  0  0  0  0  0  0  0
    1.5314    1.4368    0.0000 C   0  0  0  0  0  0  0  0  0  0  0  0
    2.9410    1.9499    0.0000 C   0  0  0  0  0  0  0  0  0  0  0  0
    4.0900    0.9857    0.0000 C   0  0  0  0  0  0  0  0  0  0  0  0
    3.8296   -0.4915    0.0000 C   0  0  0  0  0  0  0  0  0  0  0  0
    4.9786   -1.4557    0.0000 C   0  0  0  0  0  0  0  0  0  0  0  0
    6.3882   -0.9427    0.0000 C   0  0  0  0  0  0  0  0  0  0  0  0
    7.5372   -1.9069    0.0000 C   0  0  0  0  0  0  0  0  0  0  0  0
    7.2768   -3.3841    0.0000 C   0  0  0  0  0  0  0  0  0  0  0  0
    5.8672   -3.8971    0.0000 C   0  0  0  0  0  0  0  0  0  0  0  0
    4.7181   -2.9329    0.0000 C   0  0  0  0  0  0  0  0  0  0  0  0
    1.2709   -6.8515    0.0000 C   0  0  0  0  0  0  0  0  0  0  0  0
    1.5314   -8.3287    0.0000 C   0  0  0  0  0  0  0  0  0  0  0  0
    4.6110  -10.8320    0.0000 P   0  0  0  0  0  0  0  0  0  0  0  0
    4.8714   -9.3548    0.0000 O   0  0  0  0  0  0  0  0  0  0  0  0
    3.8610  -12.1311    0.0000 O   0  0  0  0  0  0  0  0  0  0  0  0
    4.6110  -13.4301    0.0000 C   0  0  0  0  0  0  0  0  0  0  0  0
    3.8610  -14.7291    0.0000 C   0  0  0  0  0  0  0  0  0  0  0  0
    4.6110  -16.0282    0.0000 C   0  0  0  0  0  0  0  0  0  0  0  0
    6.1110  -16.0282    0.0000 C   0  0  0  0  0  0  0  0  0  0  0  0
    6.8610  -14.7291    0.0000 C   0  0  0  0  0  0  0  0  0  0  0  0
    6.1110  -13.4301    0.0000 C   0  0  0  0  0  0  0  0  0  0  0  0
    6.8610  -12.1311    0.0000 C   0  0  0  0  0  0  0  0  0  0  0  0
    8.3610  -12.1311    0.0000 C   0  0  0  0  0  0  0  0  0  0  0  0
    9.1110  -10.8320    0.0000 C   0  0  0  0  0  0  0  0  0  0  0  0
    8.3610   -9.5330    0.0000 C   0  0  0  0  0  0  0  0  0  0  0  0
    6.8610   -9.5330    0.0000 C   0  0  0  0  0  0  0  0  0  0  0  0
    6.1110  -10.8320    0.0000 C   0  0  0  0  0  0  0  0  0  0  0  0
    0.8356  -13.0209    0.0000 C   0  0  0  0  0  0  0  0  0  0  0  0
   -0.1286  -11.8718    0.0000 C   0  0  0  0  0  0  0  0  0  0  0  0
   -1.6058  -12.1323    0.0000 C   0  0  0  0  0  0  0  0  0  0  0  0
   -2.1188  -13.5418    0.0000 C   0  0  0  0  0  0  0  0  0  0  0  0
   -1.1546  -14.6909    0.0000 C   0  0  0  0  0  0  0  0  0  0  0  0
    0.3226  -14.4304    0.0000 C   0  0  0  0  0  0  0  0  0  0  0  0
    4.3031  -11.0904    0.0000 C   0  0  0  0  0  0  0  0  0  0  0  0
    5.7803  -10.8299    0.0000 C   0  0  0  0  0  0  0  0  0  0  0  0
  1  2  1  0
  2  3  2  0
  2  4  1  0
  4  5  2  0
  5  6  1  0
  6  7  2  0
  7  8  1  0
  8  9  2  0
  8 10  1  0
 10 11  1  0
 11 12  1  0
 12 13  2  0
 13 14  1  0
 14 15  2  0
 15 16  1  0
 16 17  1  0
 17 18  1  0
 18 19  2  0
 18 20  1  0
 20 21  2  0
 21 22  1  0
 22 23  2  0
 23 24  1  0
 24 25  2  0
 18 26  1  0
 26 27  2  0
 27 28  1  0
 28 29  2  0
 29 30  1  0
 30 31  2  0
 16 32  1  0
 32 33  2  0
 32 34  1  0
 34 35  1  0
 35 36  2  0
 36 37  1  0
 37 38  2  0
 38 39  1  0
 39 40  2  0
 40 41  1  0
 41 42  2  0
 42 43  1  0
 43 44  2  0
 44 45  1  0
 45 46  2  0
 15 47  1  0
 47 48  2  0
 11 49  1  0
 49 50  2  0
 49 51  1  0
 51 52  1  0
 52 53  2  0
 53 54  1  0
 54 55  2  0
 55 56  1  0
 56 57  2  0
 57 58  1  0
 58 59  2  0
 59 60  1  0
 60 61  2  0
 61 62  1  0
 62 63  2  0
  8 64  1  0
 64 65  2  0
 65 66  1  0
 66 67  2  0
 67 68  1  0
 68 69  2  0
  7 70  1  0
 70 71  2  0
 71  4  1  0
 48 12  1  0
 63 49  1  0
 69 64  1  0
 25 20  1  0
 31 26  1  0
 46 32  1  0
 57 52  1  0
 63 58  1  0
 40 35  1  0
 46 41  1  0
M  END
>  <Candidate_ID>  (76) 
CAND_R2_076

>  <Candidate_Name>  (76) 
TDCA-DOPO-2-carboxamide

>  <Parent_Seed_ID>  (76) 
TRAIN_136

>  <Parent_Name>  (76) 
TDCA-DOPO-2

>  <Transformation_Code>  (76) 
carboxamide

>  <Design_Family>  (76) 
P-N

>  <Preparation_Type>  (76) 
Additive

>  <Synthesis_Level>  (76) 
B

>  <Parent_Tanimoto_r3>  (76) 
0.8133333333333334

>  <Max_Train_Tanimoto_r3>  (76) 
0.8133333333333334

>  <Risk_Flags>  (76) 
none

$$$$
CAND_R2_077 | TDCA-DOPO-2-boronic-acid
     RDKit          2D

 71 81  0  0  0  0  0  0  0  0999 V2000
    2.5733  -14.2376    0.0000 O   0  0  0  0  0  0  0  0  0  0  0  0
    2.3128  -12.7604    0.0000 P   0  0  0  0  0  0  0  0  0  0  0  0
    2.0524  -11.2832    0.0000 O   0  0  0  0  0  0  0  0  0  0  0  0
    3.2014  -10.3190    0.0000 C   0  0  0  0  0  0  0  0  0  0  0  0
    2.9410   -8.8418    0.0000 C   0  0  0  0  0  0  0  0  0  0  0  0
    4.0900   -7.8776    0.0000 C   0  0  0  0  0  0  0  0  0  0  0  0
    3.8296   -6.4004    0.0000 C   0  0  0  0  0  0  0  0  0  0  0  0
    2.4200   -5.8874    0.0000 C   0  0  0  0  0  0  0  0  0  0  0  0
    2.1595   -4.4101    0.0000 C   0  0  0  0  0  0  0  0  0  0  0  0
    0.7500   -3.8971    0.0000 O   0  0  0  0  0  0  0  0  0  0  0  0
   -0.3991   -4.8613    0.0000 P   0  0  0  0  0  0  0  0  0  0  0  0
   -1.5481   -5.8255    0.0000 O   0  0  0  0  0  0  0  0  0  0  0  0
    0.5651   -6.0104    0.0000 C   0  0  0  0  0  0  0  0  0  0  0  0
    0.0521   -7.4199    0.0000 C   0  0  0  0  0  0  0  0  0  0  0  0
    1.0163   -8.5690    0.0000 C   0  0  0  0  0  0  0  0  0  0  0  0
    2.4935   -8.3085    0.0000 C   0  0  0  0  0  0  0  0  0  0  0  0
    3.0065   -6.8990    0.0000 C   0  0  0  0  0  0  0  0  0  0  0  0
    2.0423   -5.7499    0.0000 C   0  0  0  0  0  0  0  0  0  0  0  0
   -1.3632   -3.7122    0.0000 C   0  0  0  0  0  0  0  0  0  0  0  0
   -2.8405   -3.9727    0.0000 C   0  0  0  0  0  0  0  0  0  0  0  0
   -3.8046   -2.8236    0.0000 C   0  0  0  0  0  0  0  0  0  0  0  0
   -3.2916   -1.4141    0.0000 C   0  0  0  0  0  0  0  0  0  0  0  0
   -4.2558   -0.2650    0.0000 B   0  0  0  0  0  0  0  0  0  0  0  0
   -5.7330   -0.5255    0.0000 O   0  0  0  0  0  0  0  0  0  0  0  0
   -3.7428    1.1445    0.0000 O   0  0  0  0  0  0  0  0  0  0  0  0
   -1.8144   -1.1536    0.0000 C   0  0  0  0  0  0  0  0  0  0  0  0
   -0.8502   -2.3027    0.0000 C   0  0  0  0  0  0  0  0  0  0  0  0
    3.3086   -3.4460    0.0000 P   0  0  0  0  0  0  0  0  0  0  0  0
    4.0586   -4.7450    0.0000 O   0  0  0  0  0  0  0  0  0  0  0  0
    2.1595   -2.4818    0.0000 O   0  0  0  0  0  0  0  0  0  0  0  0
    2.4200   -1.0046    0.0000 C   0  0  0  0  0  0  0  0  0  0  0  0
    1.2709   -0.0404    0.0000 C   0  0  0  0  0  0  0  0  0  0  0  0
    1.5314    1.4368    0.0000 C   0  0  0  0  0  0  0  0  0  0  0  0
    2.9410    1.9499    0.0000 C   0  0  0  0  0  0  0  0  0  0  0  0
    4.0900    0.9857    0.0000 C   0  0  0  0  0  0  0  0  0  0  0  0
    3.8296   -0.4915    0.0000 C   0  0  0  0  0  0  0  0  0  0  0  0
    4.9786   -1.4557    0.0000 C   0  0  0  0  0  0  0  0  0  0  0  0
    6.3882   -0.9427    0.0000 C   0  0  0  0  0  0  0  0  0  0  0  0
    7.5372   -1.9069    0.0000 C   0  0  0  0  0  0  0  0  0  0  0  0
    7.2768   -3.3841    0.0000 C   0  0  0  0  0  0  0  0  0  0  0  0
    5.8672   -3.8971    0.0000 C   0  0  0  0  0  0  0  0  0  0  0  0
    4.7181   -2.9329    0.0000 C   0  0  0  0  0  0  0  0  0  0  0  0
    1.2709   -6.8515    0.0000 C   0  0  0  0  0  0  0  0  0  0  0  0
    1.5314   -8.3287    0.0000 C   0  0  0  0  0  0  0  0  0  0  0  0
    4.6110  -10.8320    0.0000 P   0  0  0  0  0  0  0  0  0  0  0  0
    4.8714   -9.3548    0.0000 O   0  0  0  0  0  0  0  0  0  0  0  0
    3.8610  -12.1311    0.0000 O   0  0  0  0  0  0  0  0  0  0  0  0
    4.6110  -13.4301    0.0000 C   0  0  0  0  0  0  0  0  0  0  0  0
    3.8610  -14.7291    0.0000 C   0  0  0  0  0  0  0  0  0  0  0  0
    4.6110  -16.0282    0.0000 C   0  0  0  0  0  0  0  0  0  0  0  0
    6.1110  -16.0282    0.0000 C   0  0  0  0  0  0  0  0  0  0  0  0
    6.8610  -14.7291    0.0000 C   0  0  0  0  0  0  0  0  0  0  0  0
    6.1110  -13.4301    0.0000 C   0  0  0  0  0  0  0  0  0  0  0  0
    6.8610  -12.1311    0.0000 C   0  0  0  0  0  0  0  0  0  0  0  0
    8.3610  -12.1311    0.0000 C   0  0  0  0  0  0  0  0  0  0  0  0
    9.1110  -10.8320    0.0000 C   0  0  0  0  0  0  0  0  0  0  0  0
    8.3610   -9.5330    0.0000 C   0  0  0  0  0  0  0  0  0  0  0  0
    6.8610   -9.5330    0.0000 C   0  0  0  0  0  0  0  0  0  0  0  0
    6.1110  -10.8320    0.0000 C   0  0  0  0  0  0  0  0  0  0  0  0
    0.8356  -13.0209    0.0000 C   0  0  0  0  0  0  0  0  0  0  0  0
   -0.1286  -11.8718    0.0000 C   0  0  0  0  0  0  0  0  0  0  0  0
   -1.6058  -12.1323    0.0000 C   0  0  0  0  0  0  0  0  0  0  0  0
   -2.1188  -13.5418    0.0000 C   0  0  0  0  0  0  0  0  0  0  0  0
   -1.1546  -14.6909    0.0000 C   0  0  0  0  0  0  0  0  0  0  0  0
    0.3226  -14.4304    0.0000 C   0  0  0  0  0  0  0  0  0  0  0  0
    3.7900  -12.4999    0.0000 C   0  0  0  0  0  0  0  0  0  0  0  0
    4.7542  -13.6490    0.0000 C   0  0  0  0  0  0  0  0  0  0  0  0
    6.2314  -13.3885    0.0000 C   0  0  0  0  0  0  0  0  0  0  0  0
    6.7445  -11.9790    0.0000 C   0  0  0  0  0  0  0  0  0  0  0  0
    5.7803  -10.8299    0.0000 C   0  0  0  0  0  0  0  0  0  0  0  0
    4.3031  -11.0904    0.0000 C   0  0  0  0  0  0  0  0  0  0  0  0
  1  2  2  0
  2  3  1  0
  3  4  1  0
  4  5  1  0
  5  6  2  0
  6  7  1  0
  7  8  2  0
  8  9  1  0
  9 10  1  0
 10 11  1  0
 11 12  2  0
 11 13  1  0
 13 14  2  0
 14 15  1  0
 15 16  2  0
 16 17  1  0
 17 18  2  0
 11 19  1  0
 19 20  2  0
 20 21  1  0
 21 22  2  0
 22 23  1  0
 23 24  1  0
 23 25  1  0
 22 26  1  0
 26 27  2  0
  9 28  1  0
 28 29  2  0
 28 30  1  0
 30 31  1  0
 31 32  2  0
 32 33  1  0
 33 34  2  0
 34 35  1  0
 35 36  2  0
 36 37  1  0
 37 38  2  0
 38 39  1  0
 39 40  2  0
 40 41  1  0
 41 42  2  0
  8 43  1  0
 43 44  2  0
  4 45  1  0
 45 46  2  0
 45 47  1  0
 47 48  1  0
 48 49  2  0
 49 50  1  0
 50 51  2  0
 51 52  1  0
 52 53  2  0
 53 54  1  0
 54 55  2  0
 55 56  1  0
 56 57  2  0
 57 58  1  0
 58 59  2  0
  2 60  1  0
 60 61  2  0
 61 62  1  0
 62 63  2  0
 63 64  1  0
 64 65  2  0
  2 66  1  0
 66 67  2  0
 67 68  1  0
 68 69  2  0
 69 70  1  0
 70 71  2  0
 44  5  1  0
 59 45  1  0
 65 60  1  0
 71 66  1  0
 18 13  1  0
 27 19  1  0
 42 28  1  0
 53 48  1  0
 59 54  1  0
 36 31  1  0
 42 37  1  0
M  END
>  <Candidate_ID>  (77) 
CAND_R2_077

>  <Candidate_Name>  (77) 
TDCA-DOPO-2-boronic-acid

>  <Parent_Seed_ID>  (77) 
TRAIN_136

>  <Parent_Name>  (77) 
TDCA-DOPO-2

>  <Transformation_Code>  (77) 
boronic_acid

>  <Design_Family>  (77) 
P-B

>  <Preparation_Type>  (77) 
Additive

>  <Synthesis_Level>  (77) 
B

>  <Parent_Tanimoto_r3>  (77) 
0.8243243243243243

>  <Max_Train_Tanimoto_r3>  (77) 
0.8243243243243243

>  <Risk_Flags>  (77) 
none

$$$$
CAND_R2_078 | TDCA-DOPO-2-pinacol-boronate
     RDKit          2D

 77 88  0  0  0  0  0  0  0  0999 V2000
   10.4170   -9.0800    0.0000 C   0  0  0  0  0  0  0  0  0  0  0  0
   10.3646  -10.5791    0.0000 C   0  0  0  0  0  0  0  0  0  0  0  0
   11.8610  -10.4744    0.0000 C   0  0  0  0  0  0  0  0  0  0  0  0
    8.8792  -10.3703    0.0000 O   0  0  0  0  0  0  0  0  0  0  0  0
    8.2217  -11.7185    0.0000 B   0  0  0  0  0  0  0  0  0  0  0  0
    6.7445  -11.9790    0.0000 C   0  0  0  0  0  0  0  0  0  0  0  0
    5.7803  -10.8299    0.0000 C   0  0  0  0  0  0  0  0  0  0  0  0
    4.3031  -11.0904    0.0000 C   0  0  0  0  0  0  0  0  0  0  0  0
    3.7900  -12.4999    0.0000 C   0  0  0  0  0  0  0  0  0  0  0  0
    2.3128  -12.7604    0.0000 P   0  0  0  0  0  0  0  0  0  0  0  0
    2.5733  -14.2376    0.0000 O   0  0  0  0  0  0  0  0  0  0  0  0
    2.0524  -11.2832    0.0000 O   0  0  0  0  0  0  0  0  0  0  0  0
    3.2014  -10.3190    0.0000 C   0  0  0  0  0  0  0  0  0  0  0  0
    2.9410   -8.8418    0.0000 C   0  0  0  0  0  0  0  0  0  0  0  0
    4.0900   -7.8776    0.0000 C   0  0  0  0  0  0  0  0  0  0  0  0
    3.8296   -6.4004    0.0000 C   0  0  0  0  0  0  0  0  0  0  0  0
    2.4200   -5.8874    0.0000 C   0  0  0  0  0  0  0  0  0  0  0  0
    2.1595   -4.4101    0.0000 C   0  0  0  0  0  0  0  0  0  0  0  0
    0.7500   -3.8971    0.0000 O   0  0  0  0  0  0  0  0  0  0  0  0
   -0.3991   -4.8613    0.0000 P   0  0  0  0  0  0  0  0  0  0  0  0
   -1.5481   -5.8255    0.0000 O   0  0  0  0  0  0  0  0  0  0  0  0
   -1.3632   -3.7122    0.0000 C   0  0  0  0  0  0  0  0  0  0  0  0
   -2.8405   -3.9727    0.0000 C   0  0  0  0  0  0  0  0  0  0  0  0
   -3.8046   -2.8236    0.0000 C   0  0  0  0  0  0  0  0  0  0  0  0
   -3.2916   -1.4141    0.0000 C   0  0  0  0  0  0  0  0  0  0  0  0
   -1.8144   -1.1536    0.0000 C   0  0  0  0  0  0  0  0  0  0  0  0
   -0.8502   -2.3027    0.0000 C   0  0  0  0  0  0  0  0  0  0  0  0
    0.5651   -6.0104    0.0000 C   0  0  0  0  0  0  0  0  0  0  0  0
    0.0521   -7.4199    0.0000 C   0  0  0  0  0  0  0  0  0  0  0  0
    1.0163   -8.5690    0.0000 C   0  0  0  0  0  0  0  0  0  0  0  0
    2.4935   -8.3085    0.0000 C   0  0  0  0  0  0  0  0  0  0  0  0
    3.0065   -6.8990    0.0000 C   0  0  0  0  0  0  0  0  0  0  0  0
    2.0423   -5.7499    0.0000 C   0  0  0  0  0  0  0  0  0  0  0  0
    3.3086   -3.4460    0.0000 P   0  0  0  0  0  0  0  0  0  0  0  0
    4.0586   -4.7450    0.0000 O   0  0  0  0  0  0  0  0  0  0  0  0
    2.1595   -2.4818    0.0000 O   0  0  0  0  0  0  0  0  0  0  0  0
    2.4200   -1.0046    0.0000 C   0  0  0  0  0  0  0  0  0  0  0  0
    1.2709   -0.0404    0.0000 C   0  0  0  0  0  0  0  0  0  0  0  0
    1.5314    1.4368    0.0000 C   0  0  0  0  0  0  0  0  0  0  0  0
    2.9410    1.9499    0.0000 C   0  0  0  0  0  0  0  0  0  0  0  0
    4.0900    0.9857    0.0000 C   0  0  0  0  0  0  0  0  0  0  0  0
    3.8296   -0.4915    0.0000 C   0  0  0  0  0  0  0  0  0  0  0  0
    4.9786   -1.4557    0.0000 C   0  0  0  0  0  0  0  0  0  0  0  0
    6.3882   -0.9427    0.0000 C   0  0  0  0  0  0  0  0  0  0  0  0
    7.5372   -1.9069    0.0000 C   0  0  0  0  0  0  0  0  0  0  0  0
    7.2768   -3.3841    0.0000 C   0  0  0  0  0  0  0  0  0  0  0  0
    5.8672   -3.8971    0.0000 C   0  0  0  0  0  0  0  0  0  0  0  0
    4.7181   -2.9329    0.0000 C   0  0  0  0  0  0  0  0  0  0  0  0
    1.2709   -6.8515    0.0000 C   0  0  0  0  0  0  0  0  0  0  0  0
    1.5314   -8.3287    0.0000 C   0  0  0  0  0  0  0  0  0  0  0  0
    4.6110  -10.8320    0.0000 P   0  0  0  0  0  0  0  0  0  0  0  0
    4.8714   -9.3548    0.0000 O   0  0  0  0  0  0  0  0  0  0  0  0
    3.8610  -12.1311    0.0000 O   0  0  0  0  0  0  0  0  0  0  0  0
    4.6110  -13.4301    0.0000 C   0  0  0  0  0  0  0  0  0  0  0  0
    3.8610  -14.7291    0.0000 C   0  0  0  0  0  0  0  0  0  0  0  0
    4.6110  -16.0282    0.0000 C   0  0  0  0  0  0  0  0  0  0  0  0
    6.1110  -16.0282    0.0000 C   0  0  0  0  0  0  0  0  0  0  0  0
    6.8610  -14.7291    0.0000 C   0  0  0  0  0  0  0  0  0  0  0  0
    6.1110  -13.4301    0.0000 C   0  0  0  0  0  0  0  0  0  0  0  0
    6.8610  -12.1311    0.0000 C   0  0  0  0  0  0  0  0  0  0  0  0
    8.3610  -12.1311    0.0000 C   0  0  0  0  0  0  0  0  0  0  0  0
    9.1110  -10.8320    0.0000 C   0  0  0  0  0  0  0  0  0  0  0  0
    8.3610   -9.5330    0.0000 C   0  0  0  0  0  0  0  0  0  0  0  0
    6.8610   -9.5330    0.0000 C   0  0  0  0  0  0  0  0  0  0  0  0
    6.1110  -10.8320    0.0000 C   0  0  0  0  0  0  0  0  0  0  0  0
    0.8356  -13.0209    0.0000 C   0  0  0  0  0  0  0  0  0  0  0  0
   -0.1286  -11.8718    0.0000 C   0  0  0  0  0  0  0  0  0  0  0  0
   -1.6058  -12.1323    0.0000 C   0  0  0  0  0  0  0  0  0  0  0  0
   -2.1188  -13.5418    0.0000 C   0  0  0  0  0  0  0  0  0  0  0  0
   -1.1546  -14.6909    0.0000 C   0  0  0  0  0  0  0  0  0  0  0  0
    0.3226  -14.4304    0.0000 C   0  0  0  0  0  0  0  0  0  0  0  0
    4.7542  -13.6490    0.0000 C   0  0  0  0  0  0  0  0  0  0  0  0
    6.2314  -13.3885    0.0000 C   0  0  0  0  0  0  0  0  0  0  0  0
    9.3007  -12.7605    0.0000 O   0  0  0  0  0  0  0  0  0  0  0  0
   10.6251  -12.0563    0.0000 C   0  0  0  0  0  0  0  0  0  0  0  0
   12.0670  -11.6428    0.0000 C   0  0  0  0  0  0  0  0  0  0  0  0
   11.1870  -13.4471    0.0000 C   0  0  0  0  0  0  0  0  0  0  0  0
  1  2  1  0
  2  3  1  0
  2  4  1  0
  4  5  1  0
  5  6  1  0
  6  7  2  0
  7  8  1  0
  8  9  2  0
  9 10  1  0
 10 11  2  0
 10 12  1  0
 12 13  1  0
 13 14  1  0
 14 15  2  0
 15 16  1  0
 16 17  2  0
 17 18  1  0
 18 19  1  0
 19 20  1  0
 20 21  2  0
 20 22  1  0
 22 23  2  0
 23 24  1  0
 24 25  2  0
 25 26  1  0
 26 27  2  0
 20 28  1  0
 28 29  2  0
 29 30  1  0
 30 31  2  0
 31 32  1  0
 32 33  2  0
 18 34  1  0
 34 35  2  0
 34 36  1  0
 36 37  1  0
 37 38  2  0
 38 39  1  0
 39 40  2  0
 40 41  1  0
 41 42  2  0
 42 43  1  0
 43 44  2  0
 44 45  1  0
 45 46  2  0
 46 47  1  0
 47 48  2  0
 17 49  1  0
 49 50  2  0
 13 51  1  0
 51 52  2  0
 51 53  1  0
 53 54  1  0
 54 55  2  0
 55 56  1  0
 56 57  2  0
 57 58  1  0
 58 59  2  0
 59 60  1  0
 60 61  2  0
 61 62  1  0
 62 63  2  0
 63 64  1  0
 64 65  2  0
 10 66  1  0
 66 67  2  0
 67 68  1  0
 68 69  2  0
 69 70  1  0
 70 71  2  0
  9 72  1  0
 72 73  2  0
  5 74  1  0
 74 75  1  0
 75 76  1  0
 75 77  1  0
 75  2  1  0
 73  6  1  0
 50 14  1  0
 65 51  1  0
 71 66  1  0
 27 22  1  0
 33 28  1  0
 48 34  1  0
 59 54  1  0
 65 60  1  0
 42 37  1  0
 48 43  1  0
M  END
>  <Candidate_ID>  (78) 
CAND_R2_078

>  <Candidate_Name>  (78) 
TDCA-DOPO-2-pinacol-boronate

>  <Parent_Seed_ID>  (78) 
TRAIN_136

>  <Parent_Name>  (78) 
TDCA-DOPO-2

>  <Transformation_Code>  (78) 
pinacol_boronate

>  <Design_Family>  (78) 
P-B

>  <Preparation_Type>  (78) 
Additive

>  <Synthesis_Level>  (78) 
B

>  <Parent_Tanimoto_r3>  (78) 
0.7439024390243902

>  <Max_Train_Tanimoto_r3>  (78) 
0.7439024390243902

>  <Risk_Flags>  (78) 
none

$$$$
CAND_R2_079 | TDCA-DOPO-2-trimethoxysilyl
     RDKit          2D

 75 85  0  0  0  0  0  0  0  0999 V2000
   10.6631  -12.6071    0.0000 C   0  0  0  0  0  0  0  0  0  0  0  0
    9.6989  -11.4580    0.0000 O   0  0  0  0  0  0  0  0  0  0  0  0
    8.2217  -11.7185    0.0000 Si  0  0  0  0  0  4  0  0  0  0  0  0
    8.4822  -13.1957    0.0000 O   0  0  0  0  0  0  0  0  0  0  0  0
    9.8917  -13.7087    0.0000 C   0  0  0  0  0  0  0  0  0  0  0  0
    7.9612  -10.2413    0.0000 O   0  0  0  0  0  0  0  0  0  0  0  0
    9.1103   -9.2771    0.0000 C   0  0  0  0  0  0  0  0  0  0  0  0
    6.7445  -11.9790    0.0000 C   0  0  0  0  0  0  0  0  0  0  0  0
    6.2314  -13.3885    0.0000 C   0  0  0  0  0  0  0  0  0  0  0  0
    4.7542  -13.6490    0.0000 C   0  0  0  0  0  0  0  0  0  0  0  0
    3.7900  -12.4999    0.0000 C   0  0  0  0  0  0  0  0  0  0  0  0
    2.3128  -12.7604    0.0000 P   0  0  0  0  0  0  0  0  0  0  0  0
    2.5733  -14.2376    0.0000 O   0  0  0  0  0  0  0  0  0  0  0  0
    2.0524  -11.2832    0.0000 O   0  0  0  0  0  0  0  0  0  0  0  0
    3.2014  -10.3190    0.0000 C   0  0  0  0  0  0  0  0  0  0  0  0
    2.9410   -8.8418    0.0000 C   0  0  0  0  0  0  0  0  0  0  0  0
    4.0900   -7.8776    0.0000 C   0  0  0  0  0  0  0  0  0  0  0  0
    3.8296   -6.4004    0.0000 C   0  0  0  0  0  0  0  0  0  0  0  0
    2.4200   -5.8874    0.0000 C   0  0  0  0  0  0  0  0  0  0  0  0
    2.1595   -4.4101    0.0000 C   0  0  0  0  0  0  0  0  0  0  0  0
    0.7500   -3.8971    0.0000 O   0  0  0  0  0  0  0  0  0  0  0  0
   -0.3991   -4.8613    0.0000 P   0  0  0  0  0  0  0  0  0  0  0  0
   -1.5481   -5.8255    0.0000 O   0  0  0  0  0  0  0  0  0  0  0  0
   -1.3632   -3.7122    0.0000 C   0  0  0  0  0  0  0  0  0  0  0  0
   -2.8405   -3.9727    0.0000 C   0  0  0  0  0  0  0  0  0  0  0  0
   -3.8046   -2.8236    0.0000 C   0  0  0  0  0  0  0  0  0  0  0  0
   -3.2916   -1.4141    0.0000 C   0  0  0  0  0  0  0  0  0  0  0  0
   -1.8144   -1.1536    0.0000 C   0  0  0  0  0  0  0  0  0  0  0  0
   -0.8502   -2.3027    0.0000 C   0  0  0  0  0  0  0  0  0  0  0  0
    0.5651   -6.0104    0.0000 C   0  0  0  0  0  0  0  0  0  0  0  0
    0.0521   -7.4199    0.0000 C   0  0  0  0  0  0  0  0  0  0  0  0
    1.0163   -8.5690    0.0000 C   0  0  0  0  0  0  0  0  0  0  0  0
    2.4935   -8.3085    0.0000 C   0  0  0  0  0  0  0  0  0  0  0  0
    3.0065   -6.8990    0.0000 C   0  0  0  0  0  0  0  0  0  0  0  0
    2.0423   -5.7499    0.0000 C   0  0  0  0  0  0  0  0  0  0  0  0
    3.3086   -3.4460    0.0000 P   0  0  0  0  0  0  0  0  0  0  0  0
    4.0586   -4.7450    0.0000 O   0  0  0  0  0  0  0  0  0  0  0  0
    2.1595   -2.4818    0.0000 O   0  0  0  0  0  0  0  0  0  0  0  0
    2.4200   -1.0046    0.0000 C   0  0  0  0  0  0  0  0  0  0  0  0
    1.2709   -0.0404    0.0000 C   0  0  0  0  0  0  0  0  0  0  0  0
    1.5314    1.4368    0.0000 C   0  0  0  0  0  0  0  0  0  0  0  0
    2.9410    1.9499    0.0000 C   0  0  0  0  0  0  0  0  0  0  0  0
    4.0900    0.9857    0.0000 C   0  0  0  0  0  0  0  0  0  0  0  0
    3.8296   -0.4915    0.0000 C   0  0  0  0  0  0  0  0  0  0  0  0
    4.9786   -1.4557    0.0000 C   0  0  0  0  0  0  0  0  0  0  0  0
    6.3882   -0.9427    0.0000 C   0  0  0  0  0  0  0  0  0  0  0  0
    7.5372   -1.9069    0.0000 C   0  0  0  0  0  0  0  0  0  0  0  0
    7.2768   -3.3841    0.0000 C   0  0  0  0  0  0  0  0  0  0  0  0
    5.8672   -3.8971    0.0000 C   0  0  0  0  0  0  0  0  0  0  0  0
    4.7181   -2.9329    0.0000 C   0  0  0  0  0  0  0  0  0  0  0  0
    1.2709   -6.8515    0.0000 C   0  0  0  0  0  0  0  0  0  0  0  0
    1.5314   -8.3287    0.0000 C   0  0  0  0  0  0  0  0  0  0  0  0
    4.6110  -10.8320    0.0000 P   0  0  0  0  0  0  0  0  0  0  0  0
    4.8714   -9.3548    0.0000 O   0  0  0  0  0  0  0  0  0  0  0  0
    3.8610  -12.1311    0.0000 O   0  0  0  0  0  0  0  0  0  0  0  0
    4.6110  -13.4301    0.0000 C   0  0  0  0  0  0  0  0  0  0  0  0
    3.8610  -14.7291    0.0000 C   0  0  0  0  0  0  0  0  0  0  0  0
    4.6110  -16.0282    0.0000 C   0  0  0  0  0  0  0  0  0  0  0  0
    6.1110  -16.0282    0.0000 C   0  0  0  0  0  0  0  0  0  0  0  0
    6.8610  -14.7291    0.0000 C   0  0  0  0  0  0  0  0  0  0  0  0
    6.1110  -13.4301    0.0000 C   0  0  0  0  0  0  0  0  0  0  0  0
    6.8610  -12.1311    0.0000 C   0  0  0  0  0  0  0  0  0  0  0  0
    8.3610  -12.1311    0.0000 C   0  0  0  0  0  0  0  0  0  0  0  0
    9.1110  -10.8320    0.0000 C   0  0  0  0  0  0  0  0  0  0  0  0
    8.3610   -9.5330    0.0000 C   0  0  0  0  0  0  0  0  0  0  0  0
    6.8610   -9.5330    0.0000 C   0  0  0  0  0  0  0  0  0  0  0  0
    6.1110  -10.8320    0.0000 C   0  0  0  0  0  0  0  0  0  0  0  0
    0.8356  -13.0209    0.0000 C   0  0  0  0  0  0  0  0  0  0  0  0
   -0.1286  -11.8718    0.0000 C   0  0  0  0  0  0  0  0  0  0  0  0
   -1.6058  -12.1323    0.0000 C   0  0  0  0  0  0  0  0  0  0  0  0
   -2.1188  -13.5418    0.0000 C   0  0  0  0  0  0  0  0  0  0  0  0
   -1.1546  -14.6909    0.0000 C   0  0  0  0  0  0  0  0  0  0  0  0
    0.3226  -14.4304    0.0000 C   0  0  0  0  0  0  0  0  0  0  0  0
    4.3031  -11.0904    0.0000 C   0  0  0  0  0  0  0  0  0  0  0  0
    5.7803  -10.8299    0.0000 C   0  0  0  0  0  0  0  0  0  0  0  0
  1  2  1  0
  2  3  1  0
  3  4  1  0
  4  5  1  0
  3  6  1  0
  6  7  1  0
  3  8  1  0
  8  9  2  0
  9 10  1  0
 10 11  2  0
 11 12  1  0
 12 13  2  0
 12 14  1  0
 14 15  1  0
 15 16  1  0
 16 17  2  0
 17 18  1  0
 18 19  2  0
 19 20  1  0
 20 21  1  0
 21 22  1  0
 22 23  2  0
 22 24  1  0
 24 25  2  0
 25 26  1  0
 26 27  2  0
 27 28  1  0
 28 29  2  0
 22 30  1  0
 30 31  2  0
 31 32  1  0
 32 33  2  0
 33 34  1  0
 34 35  2  0
 20 36  1  0
 36 37  2  0
 36 38  1  0
 38 39  1  0
 39 40  2  0
 40 41  1  0
 41 42  2  0
 42 43  1  0
 43 44  2  0
 44 45  1  0
 45 46  2  0
 46 47  1  0
 47 48  2  0
 48 49  1  0
 49 50  2  0
 19 51  1  0
 51 52  2  0
 15 53  1  0
 53 54  2  0
 53 55  1  0
 55 56  1  0
 56 57  2  0
 57 58  1  0
 58 59  2  0
 59 60  1  0
 60 61  2  0
 61 62  1  0
 62 63  2  0
 63 64  1  0
 64 65  2  0
 65 66  1  0
 66 67  2  0
 12 68  1  0
 68 69  2  0
 69 70  1  0
 70 71  2  0
 71 72  1  0
 72 73  2  0
 11 74  1  0
 74 75  2  0
 75  8  1  0
 52 16  1  0
 67 53  1  0
 73 68  1  0
 29 24  1  0
 35 30  1  0
 50 36  1  0
 61 56  1  0
 67 62  1  0
 44 39  1  0
 50 45  1  0
M  END
>  <Candidate_ID>  (79) 
CAND_R2_079

>  <Candidate_Name>  (79) 
TDCA-DOPO-2-trimethoxysilyl

>  <Parent_Seed_ID>  (79) 
TRAIN_136

>  <Parent_Name>  (79) 
TDCA-DOPO-2

>  <Transformation_Code>  (79) 
trimethoxysilyl

>  <Design_Family>  (79) 
P-Si

>  <Preparation_Type>  (79) 
Additive + Secondary Crosslinking

>  <Synthesis_Level>  (79) 
B

>  <Parent_Tanimoto_r3>  (79) 
0.7922077922077922

>  <Max_Train_Tanimoto_r3>  (79) 
0.7922077922077922

>  <Risk_Flags>  (79) 
none

$$$$
CAND_R2_080 | TDCA-DOPO-2-triethoxysilyl
     RDKit          2D

 78 88  0  0  0  0  0  0  0  0999 V2000
   12.1403  -12.3466    0.0000 C   0  0  0  0  0  0  0  0  0  0  0  0
   10.6631  -12.6071    0.0000 C   0  0  0  0  0  0  0  0  0  0  0  0
    9.6989  -11.4580    0.0000 O   0  0  0  0  0  0  0  0  0  0  0  0
    8.2217  -11.7185    0.0000 Si  0  0  0  0  0  4  0  0  0  0  0  0
    8.4822  -13.1957    0.0000 O   0  0  0  0  0  0  0  0  0  0  0  0
    9.8917  -13.7087    0.0000 C   0  0  0  0  0  0  0  0  0  0  0  0
   10.1522  -15.1859    0.0000 C   0  0  0  0  0  0  0  0  0  0  0  0
    7.9612  -10.2413    0.0000 O   0  0  0  0  0  0  0  0  0  0  0  0
    9.1103   -9.2771    0.0000 C   0  0  0  0  0  0  0  0  0  0  0  0
    8.8498   -7.7999    0.0000 C   0  0  0  0  0  0  0  0  0  0  0  0
    6.7445  -11.9790    0.0000 C   0  0  0  0  0  0  0  0  0  0  0  0
    6.2314  -13.3885    0.0000 C   0  0  0  0  0  0  0  0  0  0  0  0
    4.7542  -13.6490    0.0000 C   0  0  0  0  0  0  0  0  0  0  0  0
    3.7900  -12.4999    0.0000 C   0  0  0  0  0  0  0  0  0  0  0  0
    2.3128  -12.7604    0.0000 P   0  0  0  0  0  0  0  0  0  0  0  0
    2.5733  -14.2376    0.0000 O   0  0  0  0  0  0  0  0  0  0  0  0
    2.0524  -11.2832    0.0000 O   0  0  0  0  0  0  0  0  0  0  0  0
    3.2014  -10.3190    0.0000 C   0  0  0  0  0  0  0  0  0  0  0  0
    2.9410   -8.8418    0.0000 C   0  0  0  0  0  0  0  0  0  0  0  0
    4.0900   -7.8776    0.0000 C   0  0  0  0  0  0  0  0  0  0  0  0
    3.8296   -6.4004    0.0000 C   0  0  0  0  0  0  0  0  0  0  0  0
    2.4200   -5.8874    0.0000 C   0  0  0  0  0  0  0  0  0  0  0  0
    2.1595   -4.4101    0.0000 C   0  0  0  0  0  0  0  0  0  0  0  0
    0.7500   -3.8971    0.0000 O   0  0  0  0  0  0  0  0  0  0  0  0
   -0.3991   -4.8613    0.0000 P   0  0  0  0  0  0  0  0  0  0  0  0
   -1.5481   -5.8255    0.0000 O   0  0  0  0  0  0  0  0  0  0  0  0
   -1.3632   -3.7122    0.0000 C   0  0  0  0  0  0  0  0  0  0  0  0
   -2.8405   -3.9727    0.0000 C   0  0  0  0  0  0  0  0  0  0  0  0
   -3.8046   -2.8236    0.0000 C   0  0  0  0  0  0  0  0  0  0  0  0
   -3.2916   -1.4141    0.0000 C   0  0  0  0  0  0  0  0  0  0  0  0
   -1.8144   -1.1536    0.0000 C   0  0  0  0  0  0  0  0  0  0  0  0
   -0.8502   -2.3027    0.0000 C   0  0  0  0  0  0  0  0  0  0  0  0
    0.5651   -6.0104    0.0000 C   0  0  0  0  0  0  0  0  0  0  0  0
    0.0521   -7.4199    0.0000 C   0  0  0  0  0  0  0  0  0  0  0  0
    1.0163   -8.5690    0.0000 C   0  0  0  0  0  0  0  0  0  0  0  0
    2.4935   -8.3085    0.0000 C   0  0  0  0  0  0  0  0  0  0  0  0
    3.0065   -6.8990    0.0000 C   0  0  0  0  0  0  0  0  0  0  0  0
    2.0423   -5.7499    0.0000 C   0  0  0  0  0  0  0  0  0  0  0  0
    3.3086   -3.4460    0.0000 P   0  0  0  0  0  0  0  0  0  0  0  0
    4.0586   -4.7450    0.0000 O   0  0  0  0  0  0  0  0  0  0  0  0
    2.1595   -2.4818    0.0000 O   0  0  0  0  0  0  0  0  0  0  0  0
    2.4200   -1.0046    0.0000 C   0  0  0  0  0  0  0  0  0  0  0  0
    1.2709   -0.0404    0.0000 C   0  0  0  0  0  0  0  0  0  0  0  0
    1.5314    1.4368    0.0000 C   0  0  0  0  0  0  0  0  0  0  0  0
    2.9410    1.9499    0.0000 C   0  0  0  0  0  0  0  0  0  0  0  0
    4.0900    0.9857    0.0000 C   0  0  0  0  0  0  0  0  0  0  0  0
    3.8296   -0.4915    0.0000 C   0  0  0  0  0  0  0  0  0  0  0  0
    4.9786   -1.4557    0.0000 C   0  0  0  0  0  0  0  0  0  0  0  0
    6.3882   -0.9427    0.0000 C   0  0  0  0  0  0  0  0  0  0  0  0
    7.5372   -1.9069    0.0000 C   0  0  0  0  0  0  0  0  0  0  0  0
    7.2768   -3.3841    0.0000 C   0  0  0  0  0  0  0  0  0  0  0  0
    5.8672   -3.8971    0.0000 C   0  0  0  0  0  0  0  0  0  0  0  0
    4.7181   -2.9329    0.0000 C   0  0  0  0  0  0  0  0  0  0  0  0
    1.2709   -6.8515    0.0000 C   0  0  0  0  0  0  0  0  0  0  0  0
    1.5314   -8.3287    0.0000 C   0  0  0  0  0  0  0  0  0  0  0  0
    4.6110  -10.8320    0.0000 P   0  0  0  0  0  0  0  0  0  0  0  0
    4.8714   -9.3548    0.0000 O   0  0  0  0  0  0  0  0  0  0  0  0
    3.8610  -12.1311    0.0000 O   0  0  0  0  0  0  0  0  0  0  0  0
    4.6110  -13.4301    0.0000 C   0  0  0  0  0  0  0  0  0  0  0  0
    3.8610  -14.7291    0.0000 C   0  0  0  0  0  0  0  0  0  0  0  0
    4.6110  -16.0282    0.0000 C   0  0  0  0  0  0  0  0  0  0  0  0
    6.1110  -16.0282    0.0000 C   0  0  0  0  0  0  0  0  0  0  0  0
    6.8610  -14.7291    0.0000 C   0  0  0  0  0  0  0  0  0  0  0  0
    6.1110  -13.4301    0.0000 C   0  0  0  0  0  0  0  0  0  0  0  0
    6.8610  -12.1311    0.0000 C   0  0  0  0  0  0  0  0  0  0  0  0
    8.3610  -12.1311    0.0000 C   0  0  0  0  0  0  0  0  0  0  0  0
    9.1110  -10.8320    0.0000 C   0  0  0  0  0  0  0  0  0  0  0  0
    8.3610   -9.5330    0.0000 C   0  0  0  0  0  0  0  0  0  0  0  0
    6.8610   -9.5330    0.0000 C   0  0  0  0  0  0  0  0  0  0  0  0
    6.1110  -10.8320    0.0000 C   0  0  0  0  0  0  0  0  0  0  0  0
    0.8356  -13.0209    0.0000 C   0  0  0  0  0  0  0  0  0  0  0  0
   -0.1286  -11.8718    0.0000 C   0  0  0  0  0  0  0  0  0  0  0  0
   -1.6058  -12.1323    0.0000 C   0  0  0  0  0  0  0  0  0  0  0  0
   -2.1188  -13.5418    0.0000 C   0  0  0  0  0  0  0  0  0  0  0  0
   -1.1546  -14.6909    0.0000 C   0  0  0  0  0  0  0  0  0  0  0  0
    0.3226  -14.4304    0.0000 C   0  0  0  0  0  0  0  0  0  0  0  0
    4.3031  -11.0904    0.0000 C   0  0  0  0  0  0  0  0  0  0  0  0
    5.7803  -10.8299    0.0000 C   0  0  0  0  0  0  0  0  0  0  0  0
  1  2  1  0
  2  3  1  0
  3  4  1  0
  4  5  1  0
  5  6  1  0
  6  7  1  0
  4  8  1  0
  8  9  1  0
  9 10  1  0
  4 11  1  0
 11 12  2  0
 12 13  1  0
 13 14  2  0
 14 15  1  0
 15 16  2  0
 15 17  1  0
 17 18  1  0
 18 19  1  0
 19 20  2  0
 20 21  1  0
 21 22  2  0
 22 23  1  0
 23 24  1  0
 24 25  1  0
 25 26  2  0
 25 27  1  0
 27 28  2  0
 28 29  1  0
 29 30  2  0
 30 31  1  0
 31 32  2  0
 25 33  1  0
 33 34  2  0
 34 35  1  0
 35 36  2  0
 36 37  1  0
 37 38  2  0
 23 39  1  0
 39 40  2  0
 39 41  1  0
 41 42  1  0
 42 43  2  0
 43 44  1  0
 44 45  2  0
 45 46  1  0
 46 47  2  0
 47 48  1  0
 48 49  2  0
 49 50  1  0
 50 51  2  0
 51 52  1  0
 52 53  2  0
 22 54  1  0
 54 55  2  0
 18 56  1  0
 56 57  2  0
 56 58  1  0
 58 59  1  0
 59 60  2  0
 60 61  1  0
 61 62  2  0
 62 63  1  0
 63 64  2  0
 64 65  1  0
 65 66  2  0
 66 67  1  0
 67 68  2  0
 68 69  1  0
 69 70  2  0
 15 71  1  0
 71 72  2  0
 72 73  1  0
 73 74  2  0
 74 75  1  0
 75 76  2  0
 14 77  1  0
 77 78  2  0
 78 11  1  0
 55 19  1  0
 70 56  1  0
 76 71  1  0
 32 27  1  0
 38 33  1  0
 53 39  1  0
 64 59  1  0
 70 65  1  0
 47 42  1  0
 53 48  1  0
M  END
>  <Candidate_ID>  (80) 
CAND_R2_080

>  <Candidate_Name>  (80) 
TDCA-DOPO-2-triethoxysilyl

>  <Parent_Seed_ID>  (80) 
TRAIN_136

>  <Parent_Name>  (80) 
TDCA-DOPO-2

>  <Transformation_Code>  (80) 
triethoxysilyl

>  <Design_Family>  (80) 
P-Si

>  <Preparation_Type>  (80) 
Additive + Secondary Crosslinking

>  <Synthesis_Level>  (80) 
B

>  <Parent_Tanimoto_r3>  (80) 
0.7530864197530864

>  <Max_Train_Tanimoto_r3>  (80) 
0.7530864197530864

>  <Risk_Flags>  (80) 
none

$$$$
CAND_R2_081 | TDCA-DOPO-2-disiloxane
     RDKit          2D

 76 86  0  0  0  0  0  0  0  0999 V2000
   11.8121  -11.6429    0.0000 C   0  0  0  0  0  0  0  0  0  0  0  0
   10.6631  -12.6071    0.0000 Si  0  0  0  0  0  4  0  0  0  0  0  0
    9.5140  -13.5713    0.0000 C   0  0  0  0  0  0  0  0  0  0  0  0
   11.6273  -13.7562    0.0000 C   0  0  0  0  0  0  0  0  0  0  0  0
    9.6989  -11.4580    0.0000 O   0  0  0  0  0  0  0  0  0  0  0  0
    8.2217  -11.7185    0.0000 Si  0  0  0  0  0  4  0  0  0  0  0  0
    7.9612  -10.2413    0.0000 C   0  0  0  0  0  0  0  0  0  0  0  0
    8.4822  -13.1957    0.0000 C   0  0  0  0  0  0  0  0  0  0  0  0
    6.7445  -11.9790    0.0000 C   0  0  0  0  0  0  0  0  0  0  0  0
    6.2314  -13.3885    0.0000 C   0  0  0  0  0  0  0  0  0  0  0  0
    4.7542  -13.6490    0.0000 C   0  0  0  0  0  0  0  0  0  0  0  0
    3.7900  -12.4999    0.0000 C   0  0  0  0  0  0  0  0  0  0  0  0
    2.3128  -12.7604    0.0000 P   0  0  0  0  0  0  0  0  0  0  0  0
    2.5733  -14.2376    0.0000 O   0  0  0  0  0  0  0  0  0  0  0  0
    2.0524  -11.2832    0.0000 O   0  0  0  0  0  0  0  0  0  0  0  0
    3.2014  -10.3190    0.0000 C   0  0  0  0  0  0  0  0  0  0  0  0
    2.9410   -8.8418    0.0000 C   0  0  0  0  0  0  0  0  0  0  0  0
    4.0900   -7.8776    0.0000 C   0  0  0  0  0  0  0  0  0  0  0  0
    3.8296   -6.4004    0.0000 C   0  0  0  0  0  0  0  0  0  0  0  0
    2.4200   -5.8874    0.0000 C   0  0  0  0  0  0  0  0  0  0  0  0
    2.1595   -4.4101    0.0000 C   0  0  0  0  0  0  0  0  0  0  0  0
    0.7500   -3.8971    0.0000 O   0  0  0  0  0  0  0  0  0  0  0  0
   -0.3991   -4.8613    0.0000 P   0  0  0  0  0  0  0  0  0  0  0  0
   -1.5481   -5.8255    0.0000 O   0  0  0  0  0  0  0  0  0  0  0  0
   -1.3632   -3.7122    0.0000 C   0  0  0  0  0  0  0  0  0  0  0  0
   -2.8405   -3.9727    0.0000 C   0  0  0  0  0  0  0  0  0  0  0  0
   -3.8046   -2.8236    0.0000 C   0  0  0  0  0  0  0  0  0  0  0  0
   -3.2916   -1.4141    0.0000 C   0  0  0  0  0  0  0  0  0  0  0  0
   -1.8144   -1.1536    0.0000 C   0  0  0  0  0  0  0  0  0  0  0  0
   -0.8502   -2.3027    0.0000 C   0  0  0  0  0  0  0  0  0  0  0  0
    0.5651   -6.0104    0.0000 C   0  0  0  0  0  0  0  0  0  0  0  0
    0.0521   -7.4199    0.0000 C   0  0  0  0  0  0  0  0  0  0  0  0
    1.0163   -8.5690    0.0000 C   0  0  0  0  0  0  0  0  0  0  0  0
    2.4935   -8.3085    0.0000 C   0  0  0  0  0  0  0  0  0  0  0  0
    3.0065   -6.8990    0.0000 C   0  0  0  0  0  0  0  0  0  0  0  0
    2.0423   -5.7499    0.0000 C   0  0  0  0  0  0  0  0  0  0  0  0
    3.3086   -3.4460    0.0000 P   0  0  0  0  0  0  0  0  0  0  0  0
    4.0586   -4.7450    0.0000 O   0  0  0  0  0  0  0  0  0  0  0  0
    2.1595   -2.4818    0.0000 O   0  0  0  0  0  0  0  0  0  0  0  0
    2.4200   -1.0046    0.0000 C   0  0  0  0  0  0  0  0  0  0  0  0
    1.2709   -0.0404    0.0000 C   0  0  0  0  0  0  0  0  0  0  0  0
    1.5314    1.4368    0.0000 C   0  0  0  0  0  0  0  0  0  0  0  0
    2.9410    1.9499    0.0000 C   0  0  0  0  0  0  0  0  0  0  0  0
    4.0900    0.9857    0.0000 C   0  0  0  0  0  0  0  0  0  0  0  0
    3.8296   -0.4915    0.0000 C   0  0  0  0  0  0  0  0  0  0  0  0
    4.9786   -1.4557    0.0000 C   0  0  0  0  0  0  0  0  0  0  0  0
    6.3882   -0.9427    0.0000 C   0  0  0  0  0  0  0  0  0  0  0  0
    7.5372   -1.9069    0.0000 C   0  0  0  0  0  0  0  0  0  0  0  0
    7.2768   -3.3841    0.0000 C   0  0  0  0  0  0  0  0  0  0  0  0
    5.8672   -3.8971    0.0000 C   0  0  0  0  0  0  0  0  0  0  0  0
    4.7181   -2.9329    0.0000 C   0  0  0  0  0  0  0  0  0  0  0  0
    1.2709   -6.8515    0.0000 C   0  0  0  0  0  0  0  0  0  0  0  0
    1.5314   -8.3287    0.0000 C   0  0  0  0  0  0  0  0  0  0  0  0
    4.6110  -10.8320    0.0000 P   0  0  0  0  0  0  0  0  0  0  0  0
    4.8714   -9.3548    0.0000 O   0  0  0  0  0  0  0  0  0  0  0  0
    3.8610  -12.1311    0.0000 O   0  0  0  0  0  0  0  0  0  0  0  0
    4.6110  -13.4301    0.0000 C   0  0  0  0  0  0  0  0  0  0  0  0
    3.8610  -14.7291    0.0000 C   0  0  0  0  0  0  0  0  0  0  0  0
    4.6110  -16.0282    0.0000 C   0  0  0  0  0  0  0  0  0  0  0  0
    6.1110  -16.0282    0.0000 C   0  0  0  0  0  0  0  0  0  0  0  0
    6.8610  -14.7291    0.0000 C   0  0  0  0  0  0  0  0  0  0  0  0
    6.1110  -13.4301    0.0000 C   0  0  0  0  0  0  0  0  0  0  0  0
    6.8610  -12.1311    0.0000 C   0  0  0  0  0  0  0  0  0  0  0  0
    8.3610  -12.1311    0.0000 C   0  0  0  0  0  0  0  0  0  0  0  0
    9.1110  -10.8320    0.0000 C   0  0  0  0  0  0  0  0  0  0  0  0
    8.3610   -9.5330    0.0000 C   0  0  0  0  0  0  0  0  0  0  0  0
    6.8610   -9.5330    0.0000 C   0  0  0  0  0  0  0  0  0  0  0  0
    6.1110  -10.8320    0.0000 C   0  0  0  0  0  0  0  0  0  0  0  0
    0.8356  -13.0209    0.0000 C   0  0  0  0  0  0  0  0  0  0  0  0
   -0.1286  -11.8718    0.0000 C   0  0  0  0  0  0  0  0  0  0  0  0
   -1.6058  -12.1323    0.0000 C   0  0  0  0  0  0  0  0  0  0  0  0
   -2.1188  -13.5418    0.0000 C   0  0  0  0  0  0  0  0  0  0  0  0
   -1.1546  -14.6909    0.0000 C   0  0  0  0  0  0  0  0  0  0  0  0
    0.3226  -14.4304    0.0000 C   0  0  0  0  0  0  0  0  0  0  0  0
    4.3031  -11.0904    0.0000 C   0  0  0  0  0  0  0  0  0  0  0  0
    5.7803  -10.8299    0.0000 C   0  0  0  0  0  0  0  0  0  0  0  0
  1  2  1  0
  2  3  1  0
  2  4  1  0
  2  5  1  0
  5  6  1  0
  6  7  1  0
  6  8  1  0
  6  9  1  0
  9 10  2  0
 10 11  1  0
 11 12  2  0
 12 13  1  0
 13 14  2  0
 13 15  1  0
 15 16  1  0
 16 17  1  0
 17 18  2  0
 18 19  1  0
 19 20  2  0
 20 21  1  0
 21 22  1  0
 22 23  1  0
 23 24  2  0
 23 25  1  0
 25 26  2  0
 26 27  1  0
 27 28  2  0
 28 29  1  0
 29 30  2  0
 23 31  1  0
 31 32  2  0
 32 33  1  0
 33 34  2  0
 34 35  1  0
 35 36  2  0
 21 37  1  0
 37 38  2  0
 37 39  1  0
 39 40  1  0
 40 41  2  0
 41 42  1  0
 42 43  2  0
 43 44  1  0
 44 45  2  0
 45 46  1  0
 46 47  2  0
 47 48  1  0
 48 49  2  0
 49 50  1  0
 50 51  2  0
 20 52  1  0
 52 53  2  0
 16 54  1  0
 54 55  2  0
 54 56  1  0
 56 57  1  0
 57 58  2  0
 58 59  1  0
 59 60  2  0
 60 61  1  0
 61 62  2  0
 62 63  1  0
 63 64  2  0
 64 65  1  0
 65 66  2  0
 66 67  1  0
 67 68  2  0
 13 69  1  0
 69 70  2  0
 70 71  1  0
 71 72  2  0
 72 73  1  0
 73 74  2  0
 12 75  1  0
 75 76  2  0
 76  9  1  0
 53 17  1  0
 68 54  1  0
 74 69  1  0
 30 25  1  0
 36 31  1  0
 51 37  1  0
 62 57  1  0
 68 63  1  0
 45 40  1  0
 51 46  1  0
M  END
>  <Candidate_ID>  (81) 
CAND_R2_081

>  <Candidate_Name>  (81) 
TDCA-DOPO-2-disiloxane

>  <Parent_Seed_ID>  (81) 
TRAIN_136

>  <Parent_Name>  (81) 
TDCA-DOPO-2

>  <Transformation_Code>  (81) 
disiloxane

>  <Design_Family>  (81) 
P-Si

>  <Preparation_Type>  (81) 
Additive

>  <Synthesis_Level>  (81) 
B

>  <Parent_Tanimoto_r3>  (81) 
0.7721518987341772

>  <Max_Train_Tanimoto_r3>  (81) 
0.7721518987341772

>  <Risk_Flags>  (81) 
none

$$$$
CAND_R2_082 | TDCA-DOPO-2-glycidyloxy
     RDKit          2D

 73 84  0  0  0  0  0  0  0  0999 V2000
    2.5733  -14.2376    0.0000 O   0  0  0  0  0  0  0  0  0  0  0  0
    2.3128  -12.7604    0.0000 P   0  0  0  0  0  0  0  0  0  0  0  0
    2.0524  -11.2832    0.0000 O   0  0  0  0  0  0  0  0  0  0  0  0
    3.2014  -10.3190    0.0000 C   0  0  0  0  0  0  0  0  0  0  0  0
    2.9410   -8.8418    0.0000 C   0  0  0  0  0  0  0  0  0  0  0  0
    4.0900   -7.8776    0.0000 C   0  0  0  0  0  0  0  0  0  0  0  0
    3.8296   -6.4004    0.0000 C   0  0  0  0  0  0  0  0  0  0  0  0
    2.4200   -5.8874    0.0000 C   0  0  0  0  0  0  0  0  0  0  0  0
    2.1595   -4.4101    0.0000 C   0  0  0  0  0  0  0  0  0  0  0  0
    0.7500   -3.8971    0.0000 O   0  0  0  0  0  0  0  0  0  0  0  0
   -0.3991   -4.8613    0.0000 P   0  0  0  0  0  0  0  0  0  0  0  0
   -1.5481   -5.8255    0.0000 O   0  0  0  0  0  0  0  0  0  0  0  0
    0.5651   -6.0104    0.0000 C   0  0  0  0  0  0  0  0  0  0  0  0
    0.0521   -7.4199    0.0000 C   0  0  0  0  0  0  0  0  0  0  0  0
    1.0163   -8.5690    0.0000 C   0  0  0  0  0  0  0  0  0  0  0  0
    2.4935   -8.3085    0.0000 C   0  0  0  0  0  0  0  0  0  0  0  0
    3.0065   -6.8990    0.0000 C   0  0  0  0  0  0  0  0  0  0  0  0
    2.0423   -5.7499    0.0000 C   0  0  0  0  0  0  0  0  0  0  0  0
   -1.3632   -3.7122    0.0000 C   0  0  0  0  0  0  0  0  0  0  0  0
   -0.8502   -2.3027    0.0000 C   0  0  0  0  0  0  0  0  0  0  0  0
   -1.8144   -1.1536    0.0000 C   0  0  0  0  0  0  0  0  0  0  0  0
   -3.2916   -1.4141    0.0000 C   0  0  0  0  0  0  0  0  0  0  0  0
   -4.2558   -0.2650    0.0000 O   0  0  0  0  0  0  0  0  0  0  0  0
   -3.7428    1.1445    0.0000 C   0  0  0  0  0  0  0  0  0  0  0  0
   -4.7069    2.2936    0.0000 C   0  0  0  0  0  0  0  0  0  0  0  0
   -6.1165    2.8066    0.0000 C   0  0  0  0  0  0  0  0  0  0  0  0
   -4.9674    3.7708    0.0000 O   0  0  0  0  0  0  0  0  0  0  0  0
   -3.8046   -2.8236    0.0000 C   0  0  0  0  0  0  0  0  0  0  0  0
   -2.8405   -3.9727    0.0000 C   0  0  0  0  0  0  0  0  0  0  0  0
    3.3086   -3.4460    0.0000 P   0  0  0  0  0  0  0  0  0  0  0  0
    4.0586   -4.7450    0.0000 O   0  0  0  0  0  0  0  0  0  0  0  0
    2.1595   -2.4818    0.0000 O   0  0  0  0  0  0  0  0  0  0  0  0
    2.4200   -1.0046    0.0000 C   0  0  0  0  0  0  0  0  0  0  0  0
    1.2709   -0.0404    0.0000 C   0  0  0  0  0  0  0  0  0  0  0  0
    1.5314    1.4368    0.0000 C   0  0  0  0  0  0  0  0  0  0  0  0
    2.9410    1.9499    0.0000 C   0  0  0  0  0  0  0  0  0  0  0  0
    4.0900    0.9857    0.0000 C   0  0  0  0  0  0  0  0  0  0  0  0
    3.8296   -0.4915    0.0000 C   0  0  0  0  0  0  0  0  0  0  0  0
    4.9786   -1.4557    0.0000 C   0  0  0  0  0  0  0  0  0  0  0  0
    6.3882   -0.9427    0.0000 C   0  0  0  0  0  0  0  0  0  0  0  0
    7.5372   -1.9069    0.0000 C   0  0  0  0  0  0  0  0  0  0  0  0
    7.2768   -3.3841    0.0000 C   0  0  0  0  0  0  0  0  0  0  0  0
    5.8672   -3.8971    0.0000 C   0  0  0  0  0  0  0  0  0  0  0  0
    4.7181   -2.9329    0.0000 C   0  0  0  0  0  0  0  0  0  0  0  0
    1.2709   -6.8515    0.0000 C   0  0  0  0  0  0  0  0  0  0  0  0
    1.5314   -8.3287    0.0000 C   0  0  0  0  0  0  0  0  0  0  0  0
    4.6110  -10.8320    0.0000 P   0  0  0  0  0  0  0  0  0  0  0  0
    4.8714   -9.3548    0.0000 O   0  0  0  0  0  0  0  0  0  0  0  0
    3.8610  -12.1311    0.0000 O   0  0  0  0  0  0  0  0  0  0  0  0
    4.6110  -13.4301    0.0000 C   0  0  0  0  0  0  0  0  0  0  0  0
    3.8610  -14.7291    0.0000 C   0  0  0  0  0  0  0  0  0  0  0  0
    4.6110  -16.0282    0.0000 C   0  0  0  0  0  0  0  0  0  0  0  0
    6.1110  -16.0282    0.0000 C   0  0  0  0  0  0  0  0  0  0  0  0
    6.8610  -14.7291    0.0000 C   0  0  0  0  0  0  0  0  0  0  0  0
    6.1110  -13.4301    0.0000 C   0  0  0  0  0  0  0  0  0  0  0  0
    6.8610  -12.1311    0.0000 C   0  0  0  0  0  0  0  0  0  0  0  0
    8.3610  -12.1311    0.0000 C   0  0  0  0  0  0  0  0  0  0  0  0
    9.1110  -10.8320    0.0000 C   0  0  0  0  0  0  0  0  0  0  0  0
    8.3610   -9.5330    0.0000 C   0  0  0  0  0  0  0  0  0  0  0  0
    6.8610   -9.5330    0.0000 C   0  0  0  0  0  0  0  0  0  0  0  0
    6.1110  -10.8320    0.0000 C   0  0  0  0  0  0  0  0  0  0  0  0
    0.8356  -13.0209    0.0000 C   0  0  0  0  0  0  0  0  0  0  0  0
   -0.1286  -11.8718    0.0000 C   0  0  0  0  0  0  0  0  0  0  0  0
   -1.6058  -12.1323    0.0000 C   0  0  0  0  0  0  0  0  0  0  0  0
   -2.1188  -13.5418    0.0000 C   0  0  0  0  0  0  0  0  0  0  0  0
   -1.1546  -14.6909    0.0000 C   0  0  0  0  0  0  0  0  0  0  0  0
    0.3226  -14.4304    0.0000 C   0  0  0  0  0  0  0  0  0  0  0  0
    3.7900  -12.4999    0.0000 C   0  0  0  0  0  0  0  0  0  0  0  0
    4.7542  -13.6490    0.0000 C   0  0  0  0  0  0  0  0  0  0  0  0
    6.2314  -13.3885    0.0000 C   0  0  0  0  0  0  0  0  0  0  0  0
    6.7445  -11.9790    0.0000 C   0  0  0  0  0  0  0  0  0  0  0  0
    5.7803  -10.8299    0.0000 C   0  0  0  0  0  0  0  0  0  0  0  0
    4.3031  -11.0904    0.0000 C   0  0  0  0  0  0  0  0  0  0  0  0
  1  2  2  0
  2  3  1  0
  3  4  1  0
  4  5  1  0
  5  6  2  0
  6  7  1  0
  7  8  2  0
  8  9  1  0
  9 10  1  0
 10 11  1  0
 11 12  2  0
 11 13  1  0
 13 14  2  0
 14 15  1  0
 15 16  2  0
 16 17  1  0
 17 18  2  0
 11 19  1  0
 19 20  2  0
 20 21  1  0
 21 22  2  0
 22 23  1  0
 23 24  1  0
 24 25  1  0
 25 26  1  0
 26 27  1  0
 22 28  1  0
 28 29  2  0
  9 30  1  0
 30 31  2  0
 30 32  1  0
 32 33  1  0
 33 34  2  0
 34 35  1  0
 35 36  2  0
 36 37  1  0
 37 38  2  0
 38 39  1  0
 39 40  2  0
 40 41  1  0
 41 42  2  0
 42 43  1  0
 43 44  2  0
  8 45  1  0
 45 46  2  0
  4 47  1  0
 47 48  2  0
 47 49  1  0
 49 50  1  0
 50 51  2  0
 51 52  1  0
 52 53  2  0
 53 54  1  0
 54 55  2  0
 55 56  1  0
 56 57  2  0
 57 58  1  0
 58 59  2  0
 59 60  1  0
 60 61  2  0
  2 62  1  0
 62 63  2  0
 63 64  1  0
 64 65  2  0
 65 66  1  0
 66 67  2  0
  2 68  1  0
 68 69  2  0
 69 70  1  0
 70 71  2  0
 71 72  1  0
 72 73  2  0
 46  5  1  0
 61 47  1  0
 67 62  1  0
 73 68  1  0
 18 13  1  0
 29 19  1  0
 44 30  1  0
 55 50  1  0
 61 56  1  0
 27 25  1  0
 38 33  1  0
 44 39  1  0
M  END
>  <Candidate_ID>  (82) 
CAND_R2_082

>  <Candidate_Name>  (82) 
TDCA-DOPO-2-glycidyloxy

>  <Parent_Seed_ID>  (82) 
TRAIN_136

>  <Parent_Name>  (82) 
TDCA-DOPO-2

>  <Transformation_Code>  (82) 
glycidyloxy

>  <Design_Family>  (82) 
P-only

>  <Preparation_Type>  (82) 
Co-curing

>  <Synthesis_Level>  (82) 
B

>  <Parent_Tanimoto_r3>  (82) 
0.7439024390243902

>  <Max_Train_Tanimoto_r3>  (82) 
0.7439024390243902

>  <Risk_Flags>  (82) 
none

$$$$
CAND_R2_083 | TDCA-DOPO-2-diaminotriazine
     RDKit          2D

 76 87  0  0  0  0  0  0  0  0999 V2000
   10.7250   -8.6389    0.0000 N   0  0  0  0  0  0  0  0  0  0  0  0
   10.2119  -10.0485    0.0000 C   0  0  0  0  0  0  0  0  0  0  0  0
   11.1761  -11.1976    0.0000 N   0  0  0  0  0  0  0  0  0  0  0  0
   10.6631  -12.6071    0.0000 C   0  0  0  0  0  0  0  0  0  0  0  0
   11.6273  -13.7562    0.0000 N   0  0  0  0  0  0  0  0  0  0  0  0
    9.1859  -12.8676    0.0000 N   0  0  0  0  0  0  0  0  0  0  0  0
    8.2217  -11.7185    0.0000 C   0  0  0  0  0  0  0  0  0  0  0  0
    6.7445  -11.9790    0.0000 C   0  0  0  0  0  0  0  0  0  0  0  0
    5.7803  -10.8299    0.0000 C   0  0  0  0  0  0  0  0  0  0  0  0
    4.3031  -11.0904    0.0000 C   0  0  0  0  0  0  0  0  0  0  0  0
    3.7900  -12.4999    0.0000 C   0  0  0  0  0  0  0  0  0  0  0  0
    2.3128  -12.7604    0.0000 P   0  0  0  0  0  0  0  0  0  0  0  0
    2.5733  -14.2376    0.0000 O   0  0  0  0  0  0  0  0  0  0  0  0
    2.0524  -11.2832    0.0000 O   0  0  0  0  0  0  0  0  0  0  0  0
    3.2014  -10.3190    0.0000 C   0  0  0  0  0  0  0  0  0  0  0  0
    2.9410   -8.8418    0.0000 C   0  0  0  0  0  0  0  0  0  0  0  0
    4.0900   -7.8776    0.0000 C   0  0  0  0  0  0  0  0  0  0  0  0
    3.8296   -6.4004    0.0000 C   0  0  0  0  0  0  0  0  0  0  0  0
    2.4200   -5.8874    0.0000 C   0  0  0  0  0  0  0  0  0  0  0  0
    2.1595   -4.4101    0.0000 C   0  0  0  0  0  0  0  0  0  0  0  0
    0.7500   -3.8971    0.0000 O   0  0  0  0  0  0  0  0  0  0  0  0
   -0.3991   -4.8613    0.0000 P   0  0  0  0  0  0  0  0  0  0  0  0
   -1.5481   -5.8255    0.0000 O   0  0  0  0  0  0  0  0  0  0  0  0
   -1.3632   -3.7122    0.0000 C   0  0  0  0  0  0  0  0  0  0  0  0
   -2.8405   -3.9727    0.0000 C   0  0  0  0  0  0  0  0  0  0  0  0
   -3.8046   -2.8236    0.0000 C   0  0  0  0  0  0  0  0  0  0  0  0
   -3.2916   -1.4141    0.0000 C   0  0  0  0  0  0  0  0  0  0  0  0
   -1.8144   -1.1536    0.0000 C   0  0  0  0  0  0  0  0  0  0  0  0
   -0.8502   -2.3027    0.0000 C   0  0  0  0  0  0  0  0  0  0  0  0
    0.5651   -6.0104    0.0000 C   0  0  0  0  0  0  0  0  0  0  0  0
    0.0521   -7.4199    0.0000 C   0  0  0  0  0  0  0  0  0  0  0  0
    1.0163   -8.5690    0.0000 C   0  0  0  0  0  0  0  0  0  0  0  0
    2.4935   -8.3085    0.0000 C   0  0  0  0  0  0  0  0  0  0  0  0
    3.0065   -6.8990    0.0000 C   0  0  0  0  0  0  0  0  0  0  0  0
    2.0423   -5.7499    0.0000 C   0  0  0  0  0  0  0  0  0  0  0  0
    3.3086   -3.4460    0.0000 P   0  0  0  0  0  0  0  0  0  0  0  0
    4.0586   -4.7450    0.0000 O   0  0  0  0  0  0  0  0  0  0  0  0
    2.1595   -2.4818    0.0000 O   0  0  0  0  0  0  0  0  0  0  0  0
    2.4200   -1.0046    0.0000 C   0  0  0  0  0  0  0  0  0  0  0  0
    1.2709   -0.0404    0.0000 C   0  0  0  0  0  0  0  0  0  0  0  0
    1.5314    1.4368    0.0000 C   0  0  0  0  0  0  0  0  0  0  0  0
    2.9410    1.9499    0.0000 C   0  0  0  0  0  0  0  0  0  0  0  0
    4.0900    0.9857    0.0000 C   0  0  0  0  0  0  0  0  0  0  0  0
    3.8296   -0.4915    0.0000 C   0  0  0  0  0  0  0  0  0  0  0  0
    4.9786   -1.4557    0.0000 C   0  0  0  0  0  0  0  0  0  0  0  0
    6.3882   -0.9427    0.0000 C   0  0  0  0  0  0  0  0  0  0  0  0
    7.5372   -1.9069    0.0000 C   0  0  0  0  0  0  0  0  0  0  0  0
    7.2768   -3.3841    0.0000 C   0  0  0  0  0  0  0  0  0  0  0  0
    5.8672   -3.8971    0.0000 C   0  0  0  0  0  0  0  0  0  0  0  0
    4.7181   -2.9329    0.0000 C   0  0  0  0  0  0  0  0  0  0  0  0
    1.2709   -6.8515    0.0000 C   0  0  0  0  0  0  0  0  0  0  0  0
    1.5314   -8.3287    0.0000 C   0  0  0  0  0  0  0  0  0  0  0  0
    4.6110  -10.8320    0.0000 P   0  0  0  0  0  0  0  0  0  0  0  0
    4.8714   -9.3548    0.0000 O   0  0  0  0  0  0  0  0  0  0  0  0
    3.8610  -12.1311    0.0000 O   0  0  0  0  0  0  0  0  0  0  0  0
    4.6110  -13.4301    0.0000 C   0  0  0  0  0  0  0  0  0  0  0  0
    3.8610  -14.7291    0.0000 C   0  0  0  0  0  0  0  0  0  0  0  0
    4.6110  -16.0282    0.0000 C   0  0  0  0  0  0  0  0  0  0  0  0
    6.1110  -16.0282    0.0000 C   0  0  0  0  0  0  0  0  0  0  0  0
    6.8610  -14.7291    0.0000 C   0  0  0  0  0  0  0  0  0  0  0  0
    6.1110  -13.4301    0.0000 C   0  0  0  0  0  0  0  0  0  0  0  0
    6.8610  -12.1311    0.0000 C   0  0  0  0  0  0  0  0  0  0  0  0
    8.3610  -12.1311    0.0000 C   0  0  0  0  0  0  0  0  0  0  0  0
    9.1110  -10.8320    0.0000 C   0  0  0  0  0  0  0  0  0  0  0  0
    8.3610   -9.5330    0.0000 C   0  0  0  0  0  0  0  0  0  0  0  0
    6.8610   -9.5330    0.0000 C   0  0  0  0  0  0  0  0  0  0  0  0
    6.1110  -10.8320    0.0000 C   0  0  0  0  0  0  0  0  0  0  0  0
    0.8356  -13.0209    0.0000 C   0  0  0  0  0  0  0  0  0  0  0  0
   -0.1286  -11.8718    0.0000 C   0  0  0  0  0  0  0  0  0  0  0  0
   -1.6058  -12.1323    0.0000 C   0  0  0  0  0  0  0  0  0  0  0  0
   -2.1188  -13.5418    0.0000 C   0  0  0  0  0  0  0  0  0  0  0  0
   -1.1546  -14.6909    0.0000 C   0  0  0  0  0  0  0  0  0  0  0  0
    0.3226  -14.4304    0.0000 C   0  0  0  0  0  0  0  0  0  0  0  0
    4.7542  -13.6490    0.0000 C   0  0  0  0  0  0  0  0  0  0  0  0
    6.2314  -13.3885    0.0000 C   0  0  0  0  0  0  0  0  0  0  0  0
    8.7347  -10.3090    0.0000 N   0  0  0  0  0  0  0  0  0  0  0  0
  1  2  1  0
  2  3  2  0
  3  4  1  0
  4  5  1  0
  4  6  2  0
  6  7  1  0
  7  8  1  0
  8  9  2  0
  9 10  1  0
 10 11  2  0
 11 12  1  0
 12 13  2  0
 12 14  1  0
 14 15  1  0
 15 16  1  0
 16 17  2  0
 17 18  1  0
 18 19  2  0
 19 20  1  0
 20 21  1  0
 21 22  1  0
 22 23  2  0
 22 24  1  0
 24 25  2  0
 25 26  1  0
 26 27  2  0
 27 28  1  0
 28 29  2  0
 22 30  1  0
 30 31  2  0
 31 32  1  0
 32 33  2  0
 33 34  1  0
 34 35  2  0
 20 36  1  0
 36 37  2  0
 36 38  1  0
 38 39  1  0
 39 40  2  0
 40 41  1  0
 41 42  2  0
 42 43  1  0
 43 44  2  0
 44 45  1  0
 45 46  2  0
 46 47  1  0
 47 48  2  0
 48 49  1  0
 49 50  2  0
 19 51  1  0
 51 52  2  0
 15 53  1  0
 53 54  2  0
 53 55  1  0
 55 56  1  0
 56 57  2  0
 57 58  1  0
 58 59  2  0
 59 60  1  0
 60 61  2  0
 61 62  1  0
 62 63  2  0
 63 64  1  0
 64 65  2  0
 65 66  1  0
 66 67  2  0
 12 68  1  0
 68 69  2  0
 69 70  1  0
 70 71  2  0
 71 72  1  0
 72 73  2  0
 11 74  1  0
 74 75  2  0
  7 76  2  0
 76  2  1  0
 75  8  1  0
 52 16  1  0
 67 53  1  0
 73 68  1  0
 29 24  1  0
 35 30  1  0
 50 36  1  0
 61 56  1  0
 67 62  1  0
 44 39  1  0
 50 45  1  0
M  END
>  <Candidate_ID>  (83) 
CAND_R2_083

>  <Candidate_Name>  (83) 
TDCA-DOPO-2-diaminotriazine

>  <Parent_Seed_ID>  (83) 
TRAIN_136

>  <Parent_Name>  (83) 
TDCA-DOPO-2

>  <Transformation_Code>  (83) 
diaminotriazine

>  <Design_Family>  (83) 
P-N

>  <Preparation_Type>  (83) 
Co-curing

>  <Synthesis_Level>  (83) 
B

>  <Parent_Tanimoto_r3>  (83) 
0.7349397590361446

>  <Max_Train_Tanimoto_r3>  (83) 
0.7349397590361446

>  <Risk_Flags>  (83) 
none

$$$$
CAND_R2_084 | TDCA-DOPO-2-piperazine
     RDKit          2D

 74 85  0  0  0  0  0  0  0  0999 V2000
    2.5733  -14.2376    0.0000 O   0  0  0  0  0  0  0  0  0  0  0  0
    2.3128  -12.7604    0.0000 P   0  0  0  0  0  0  0  0  0  0  0  0
    2.0524  -11.2832    0.0000 O   0  0  0  0  0  0  0  0  0  0  0  0
    3.2014  -10.3190    0.0000 C   0  0  0  0  0  0  0  0  0  0  0  0
    2.9410   -8.8418    0.0000 C   0  0  0  0  0  0  0  0  0  0  0  0
    4.0900   -7.8776    0.0000 C   0  0  0  0  0  0  0  0  0  0  0  0
    3.8296   -6.4004    0.0000 C   0  0  0  0  0  0  0  0  0  0  0  0
    2.4200   -5.8874    0.0000 C   0  0  0  0  0  0  0  0  0  0  0  0
    2.1595   -4.4101    0.0000 C   0  0  0  0  0  0  0  0  0  0  0  0
    0.7500   -3.8971    0.0000 O   0  0  0  0  0  0  0  0  0  0  0  0
   -0.3991   -4.8613    0.0000 P   0  0  0  0  0  0  0  0  0  0  0  0
   -1.5481   -5.8255    0.0000 O   0  0  0  0  0  0  0  0  0  0  0  0
    0.5651   -6.0104    0.0000 C   0  0  0  0  0  0  0  0  0  0  0  0
    0.0521   -7.4199    0.0000 C   0  0  0  0  0  0  0  0  0  0  0  0
    1.0163   -8.5690    0.0000 C   0  0  0  0  0  0  0  0  0  0  0  0
    2.4935   -8.3085    0.0000 C   0  0  0  0  0  0  0  0  0  0  0  0
    3.0065   -6.8990    0.0000 C   0  0  0  0  0  0  0  0  0  0  0  0
    2.0423   -5.7499    0.0000 C   0  0  0  0  0  0  0  0  0  0  0  0
   -1.3632   -3.7122    0.0000 C   0  0  0  0  0  0  0  0  0  0  0  0
   -2.8405   -3.9727    0.0000 C   0  0  0  0  0  0  0  0  0  0  0  0
   -3.8046   -2.8236    0.0000 C   0  0  0  0  0  0  0  0  0  0  0  0
   -3.2916   -1.4141    0.0000 C   0  0  0  0  0  0  0  0  0  0  0  0
   -4.2558   -0.2650    0.0000 N   0  0  0  0  0  0  0  0  0  0  0  0
   -5.7330   -0.5255    0.0000 C   0  0  0  0  0  0  0  0  0  0  0  0
   -6.6972    0.6236    0.0000 C   0  0  0  0  0  0  0  0  0  0  0  0
   -6.1842    2.0331    0.0000 N   0  0  0  0  0  0  0  0  0  0  0  0
   -4.7069    2.2936    0.0000 C   0  0  0  0  0  0  0  0  0  0  0  0
   -3.7428    1.1445    0.0000 C   0  0  0  0  0  0  0  0  0  0  0  0
   -1.8144   -1.1536    0.0000 C   0  0  0  0  0  0  0  0  0  0  0  0
   -0.8502   -2.3027    0.0000 C   0  0  0  0  0  0  0  0  0  0  0  0
    3.3086   -3.4460    0.0000 P   0  0  0  0  0  0  0  0  0  0  0  0
    4.0586   -4.7450    0.0000 O   0  0  0  0  0  0  0  0  0  0  0  0
    2.1595   -2.4818    0.0000 O   0  0  0  0  0  0  0  0  0  0  0  0
    2.4200   -1.0046    0.0000 C   0  0  0  0  0  0  0  0  0  0  0  0
    1.2709   -0.0404    0.0000 C   0  0  0  0  0  0  0  0  0  0  0  0
    1.5314    1.4368    0.0000 C   0  0  0  0  0  0  0  0  0  0  0  0
    2.9410    1.9499    0.0000 C   0  0  0  0  0  0  0  0  0  0  0  0
    4.0900    0.9857    0.0000 C   0  0  0  0  0  0  0  0  0  0  0  0
    3.8296   -0.4915    0.0000 C   0  0  0  0  0  0  0  0  0  0  0  0
    4.9786   -1.4557    0.0000 C   0  0  0  0  0  0  0  0  0  0  0  0
    6.3882   -0.9427    0.0000 C   0  0  0  0  0  0  0  0  0  0  0  0
    7.5372   -1.9069    0.0000 C   0  0  0  0  0  0  0  0  0  0  0  0
    7.2768   -3.3841    0.0000 C   0  0  0  0  0  0  0  0  0  0  0  0
    5.8672   -3.8971    0.0000 C   0  0  0  0  0  0  0  0  0  0  0  0
    4.7181   -2.9329    0.0000 C   0  0  0  0  0  0  0  0  0  0  0  0
    1.2709   -6.8515    0.0000 C   0  0  0  0  0  0  0  0  0  0  0  0
    1.5314   -8.3287    0.0000 C   0  0  0  0  0  0  0  0  0  0  0  0
    4.6110  -10.8320    0.0000 P   0  0  0  0  0  0  0  0  0  0  0  0
    4.8714   -9.3548    0.0000 O   0  0  0  0  0  0  0  0  0  0  0  0
    3.8610  -12.1311    0.0000 O   0  0  0  0  0  0  0  0  0  0  0  0
    4.6110  -13.4301    0.0000 C   0  0  0  0  0  0  0  0  0  0  0  0
    3.8610  -14.7291    0.0000 C   0  0  0  0  0  0  0  0  0  0  0  0
    4.6110  -16.0282    0.0000 C   0  0  0  0  0  0  0  0  0  0  0  0
    6.1110  -16.0282    0.0000 C   0  0  0  0  0  0  0  0  0  0  0  0
    6.8610  -14.7291    0.0000 C   0  0  0  0  0  0  0  0  0  0  0  0
    6.1110  -13.4301    0.0000 C   0  0  0  0  0  0  0  0  0  0  0  0
    6.8610  -12.1311    0.0000 C   0  0  0  0  0  0  0  0  0  0  0  0
    8.3610  -12.1311    0.0000 C   0  0  0  0  0  0  0  0  0  0  0  0
    9.1110  -10.8320    0.0000 C   0  0  0  0  0  0  0  0  0  0  0  0
    8.3610   -9.5330    0.0000 C   0  0  0  0  0  0  0  0  0  0  0  0
    6.8610   -9.5330    0.0000 C   0  0  0  0  0  0  0  0  0  0  0  0
    6.1110  -10.8320    0.0000 C   0  0  0  0  0  0  0  0  0  0  0  0
    0.8356  -13.0209    0.0000 C   0  0  0  0  0  0  0  0  0  0  0  0
   -0.1286  -11.8718    0.0000 C   0  0  0  0  0  0  0  0  0  0  0  0
   -1.6058  -12.1323    0.0000 C   0  0  0  0  0  0  0  0  0  0  0  0
   -2.1188  -13.5418    0.0000 C   0  0  0  0  0  0  0  0  0  0  0  0
   -1.1546  -14.6909    0.0000 C   0  0  0  0  0  0  0  0  0  0  0  0
    0.3226  -14.4304    0.0000 C   0  0  0  0  0  0  0  0  0  0  0  0
    3.7900  -12.4999    0.0000 C   0  0  0  0  0  0  0  0  0  0  0  0
    4.7542  -13.6490    0.0000 C   0  0  0  0  0  0  0  0  0  0  0  0
    6.2314  -13.3885    0.0000 C   0  0  0  0  0  0  0  0  0  0  0  0
    6.7445  -11.9790    0.0000 C   0  0  0  0  0  0  0  0  0  0  0  0
    5.7803  -10.8299    0.0000 C   0  0  0  0  0  0  0  0  0  0  0  0
    4.3031  -11.0904    0.0000 C   0  0  0  0  0  0  0  0  0  0  0  0
  1  2  2  0
  2  3  1  0
  3  4  1  0
  4  5  1  0
  5  6  2  0
  6  7  1  0
  7  8  2  0
  8  9  1  0
  9 10  1  0
 10 11  1  0
 11 12  2  0
 11 13  1  0
 13 14  2  0
 14 15  1  0
 15 16  2  0
 16 17  1  0
 17 18  2  0
 11 19  1  0
 19 20  2  0
 20 21  1  0
 21 22  2  0
 22 23  1  0
 23 24  1  0
 24 25  1  0
 25 26  1  0
 26 27  1  0
 27 28  1  0
 22 29  1  0
 29 30  2  0
  9 31  1  0
 31 32  2  0
 31 33  1  0
 33 34  1  0
 34 35  2  0
 35 36  1  0
 36 37  2  0
 37 38  1  0
 38 39  2  0
 39 40  1  0
 40 41  2  0
 41 42  1  0
 42 43  2  0
 43 44  1  0
 44 45  2  0
  8 46  1  0
 46 47  2  0
  4 48  1  0
 48 49  2  0
 48 50  1  0
 50 51  1  0
 51 52  2  0
 52 53  1  0
 53 54  2  0
 54 55  1  0
 55 56  2  0
 56 57  1  0
 57 58  2  0
 58 59  1  0
 59 60  2  0
 60 61  1  0
 61 62  2  0
  2 63  1  0
 63 64  2  0
 64 65  1  0
 65 66  2  0
 66 67  1  0
 67 68  2  0
  2 69  1  0
 69 70  2  0
 70 71  1  0
 71 72  2  0
 72 73  1  0
 73 74  2  0
 47  5  1  0
 62 48  1  0
 68 63  1  0
 74 69  1  0
 18 13  1  0
 30 19  1  0
 45 31  1  0
 56 51  1  0
 62 57  1  0
 28 23  1  0
 39 34  1  0
 45 40  1  0
M  END
>  <Candidate_ID>  (84) 
CAND_R2_084

>  <Candidate_Name>  (84) 
TDCA-DOPO-2-piperazine

>  <Parent_Seed_ID>  (84) 
TRAIN_136

>  <Parent_Name>  (84) 
TDCA-DOPO-2

>  <Transformation_Code>  (84) 
piperazine

>  <Design_Family>  (84) 
P-N

>  <Preparation_Type>  (84) 
Co-curing

>  <Synthesis_Level>  (84) 
B

>  <Parent_Tanimoto_r3>  (84) 
0.7261904761904762

>  <Max_Train_Tanimoto_r3>  (84) 
0.7261904761904762

>  <Risk_Flags>  (84) 
none

$$$$
CAND_R2_085 | TDCA-DOPO-2-benzamide-linker
     RDKit          2D

 77 88  0  0  0  0  0  0  0  0999 V2000
    8.6728  -14.2771    0.0000 O   0  0  0  0  0  0  0  0  0  0  0  0
    9.1859  -12.8676    0.0000 C   0  0  0  0  0  0  0  0  0  0  0  0
    8.2217  -11.7185    0.0000 N   0  0  0  0  0  0  0  0  0  0  0  0
    6.7445  -11.9790    0.0000 C   0  0  0  0  0  0  0  0  0  0  0  0
    5.7803  -10.8299    0.0000 C   0  0  0  0  0  0  0  0  0  0  0  0
    4.3031  -11.0904    0.0000 C   0  0  0  0  0  0  0  0  0  0  0  0
    3.7900  -12.4999    0.0000 C   0  0  0  0  0  0  0  0  0  0  0  0
    2.3128  -12.7604    0.0000 P   0  0  0  0  0  0  0  0  0  0  0  0
    2.5733  -14.2376    0.0000 O   0  0  0  0  0  0  0  0  0  0  0  0
    2.0524  -11.2832    0.0000 O   0  0  0  0  0  0  0  0  0  0  0  0
    3.2014  -10.3190    0.0000 C   0  0  0  0  0  0  0  0  0  0  0  0
    2.9410   -8.8418    0.0000 C   0  0  0  0  0  0  0  0  0  0  0  0
    4.0900   -7.8776    0.0000 C   0  0  0  0  0  0  0  0  0  0  0  0
    3.8296   -6.4004    0.0000 C   0  0  0  0  0  0  0  0  0  0  0  0
    2.4200   -5.8874    0.0000 C   0  0  0  0  0  0  0  0  0  0  0  0
    2.1595   -4.4101    0.0000 C   0  0  0  0  0  0  0  0  0  0  0  0
    0.7500   -3.8971    0.0000 O   0  0  0  0  0  0  0  0  0  0  0  0
   -0.3991   -4.8613    0.0000 P   0  0  0  0  0  0  0  0  0  0  0  0
   -1.5481   -5.8255    0.0000 O   0  0  0  0  0  0  0  0  0  0  0  0
   -1.3632   -3.7122    0.0000 C   0  0  0  0  0  0  0  0  0  0  0  0
   -2.8405   -3.9727    0.0000 C   0  0  0  0  0  0  0  0  0  0  0  0
   -3.8046   -2.8236    0.0000 C   0  0  0  0  0  0  0  0  0  0  0  0
   -3.2916   -1.4141    0.0000 C   0  0  0  0  0  0  0  0  0  0  0  0
   -1.8144   -1.1536    0.0000 C   0  0  0  0  0  0  0  0  0  0  0  0
   -0.8502   -2.3027    0.0000 C   0  0  0  0  0  0  0  0  0  0  0  0
    0.5651   -6.0104    0.0000 C   0  0  0  0  0  0  0  0  0  0  0  0
    0.0521   -7.4199    0.0000 C   0  0  0  0  0  0  0  0  0  0  0  0
    1.0163   -8.5690    0.0000 C   0  0  0  0  0  0  0  0  0  0  0  0
    2.4935   -8.3085    0.0000 C   0  0  0  0  0  0  0  0  0  0  0  0
    3.0065   -6.8990    0.0000 C   0  0  0  0  0  0  0  0  0  0  0  0
    2.0423   -5.7499    0.0000 C   0  0  0  0  0  0  0  0  0  0  0  0
    3.3086   -3.4460    0.0000 P   0  0  0  0  0  0  0  0  0  0  0  0
    4.0586   -4.7450    0.0000 O   0  0  0  0  0  0  0  0  0  0  0  0
    2.1595   -2.4818    0.0000 O   0  0  0  0  0  0  0  0  0  0  0  0
    2.4200   -1.0046    0.0000 C   0  0  0  0  0  0  0  0  0  0  0  0
    1.2709   -0.0404    0.0000 C   0  0  0  0  0  0  0  0  0  0  0  0
    1.5314    1.4368    0.0000 C   0  0  0  0  0  0  0  0  0  0  0  0
    2.9410    1.9499    0.0000 C   0  0  0  0  0  0  0  0  0  0  0  0
    4.0900    0.9857    0.0000 C   0  0  0  0  0  0  0  0  0  0  0  0
    3.8296   -0.4915    0.0000 C   0  0  0  0  0  0  0  0  0  0  0  0
    4.9786   -1.4557    0.0000 C   0  0  0  0  0  0  0  0  0  0  0  0
    6.3882   -0.9427    0.0000 C   0  0  0  0  0  0  0  0  0  0  0  0
    7.5372   -1.9069    0.0000 C   0  0  0  0  0  0  0  0  0  0  0  0
    7.2768   -3.3841    0.0000 C   0  0  0  0  0  0  0  0  0  0  0  0
    5.8672   -3.8971    0.0000 C   0  0  0  0  0  0  0  0  0  0  0  0
    4.7181   -2.9329    0.0000 C   0  0  0  0  0  0  0  0  0  0  0  0
    1.2709   -6.8515    0.0000 C   0  0  0  0  0  0  0  0  0  0  0  0
    1.5314   -8.3287    0.0000 C   0  0  0  0  0  0  0  0  0  0  0  0
    4.6110  -10.8320    0.0000 P   0  0  0  0  0  0  0  0  0  0  0  0
    4.8714   -9.3548    0.0000 O   0  0  0  0  0  0  0  0  0  0  0  0
    3.8610  -12.1311    0.0000 O   0  0  0  0  0  0  0  0  0  0  0  0
    4.6110  -13.4301    0.0000 C   0  0  0  0  0  0  0  0  0  0  0  0
    3.8610  -14.7291    0.0000 C   0  0  0  0  0  0  0  0  0  0  0  0
    4.6110  -16.0282    0.0000 C   0  0  0  0  0  0  0  0  0  0  0  0
    6.1110  -16.0282    0.0000 C   0  0  0  0  0  0  0  0  0  0  0  0
    6.8610  -14.7291    0.0000 C   0  0  0  0  0  0  0  0  0  0  0  0
    6.1110  -13.4301    0.0000 C   0  0  0  0  0  0  0  0  0  0  0  0
    6.8610  -12.1311    0.0000 C   0  0  0  0  0  0  0  0  0  0  0  0
    8.3610  -12.1311    0.0000 C   0  0  0  0  0  0  0  0  0  0  0  0
    9.1110  -10.8320    0.0000 C   0  0  0  0  0  0  0  0  0  0  0  0
    8.3610   -9.5330    0.0000 C   0  0  0  0  0  0  0  0  0  0  0  0
    6.8610   -9.5330    0.0000 C   0  0  0  0  0  0  0  0  0  0  0  0
    6.1110  -10.8320    0.0000 C   0  0  0  0  0  0  0  0  0  0  0  0
    0.8356  -13.0209    0.0000 C   0  0  0  0  0  0  0  0  0  0  0  0
   -0.1286  -11.8718    0.0000 C   0  0  0  0  0  0  0  0  0  0  0  0
   -1.6058  -12.1323    0.0000 C   0  0  0  0  0  0  0  0  0  0  0  0
   -2.1188  -13.5418    0.0000 C   0  0  0  0  0  0  0  0  0  0  0  0
   -1.1546  -14.6909    0.0000 C   0  0  0  0  0  0  0  0  0  0  0  0
    0.3226  -14.4304    0.0000 C   0  0  0  0  0  0  0  0  0  0  0  0
    4.7542  -13.6490    0.0000 C   0  0  0  0  0  0  0  0  0  0  0  0
    6.2314  -13.3885    0.0000 C   0  0  0  0  0  0  0  0  0  0  0  0
   10.6631  -12.6071    0.0000 C   0  0  0  0  0  0  0  0  0  0  0  0
   11.6273  -13.7562    0.0000 C   0  0  0  0  0  0  0  0  0  0  0  0
   13.1045  -13.4957    0.0000 C   0  0  0  0  0  0  0  0  0  0  0  0
   13.6175  -12.0861    0.0000 C   0  0  0  0  0  0  0  0  0  0  0  0
   12.6533  -10.9371    0.0000 C   0  0  0  0  0  0  0  0  0  0  0  0
   11.1761  -11.1976    0.0000 C   0  0  0  0  0  0  0  0  0  0  0  0
  1  2  2  0
  2  3  1  0
  3  4  1  0
  4  5  2  0
  5  6  1  0
  6  7  2  0
  7  8  1  0
  8  9  2  0
  8 10  1  0
 10 11  1  0
 11 12  1  0
 12 13  2  0
 13 14  1  0
 14 15  2  0
 15 16  1  0
 16 17  1  0
 17 18  1  0
 18 19  2  0
 18 20  1  0
 20 21  2  0
 21 22  1  0
 22 23  2  0
 23 24  1  0
 24 25  2  0
 18 26  1  0
 26 27  2  0
 27 28  1  0
 28 29  2  0
 29 30  1  0
 30 31  2  0
 16 32  1  0
 32 33  2  0
 32 34  1  0
 34 35  1  0
 35 36  2  0
 36 37  1  0
 37 38  2  0
 38 39  1  0
 39 40  2  0
 40 41  1  0
 41 42  2  0
 42 43  1  0
 43 44  2  0
 44 45  1  0
 45 46  2  0
 15 47  1  0
 47 48  2  0
 11 49  1  0
 49 50  2  0
 49 51  1  0
 51 52  1  0
 52 53  2  0
 53 54  1  0
 54 55  2  0
 55 56  1  0
 56 57  2  0
 57 58  1  0
 58 59  2  0
 59 60  1  0
 60 61  2  0
 61 62  1  0
 62 63  2  0
  8 64  1  0
 64 65  2  0
 65 66  1  0
 66 67  2  0
 67 68  1  0
 68 69  2  0
  7 70  1  0
 70 71  2  0
  2 72  1  0
 72 73  2  0
 73 74  1  0
 74 75  2  0
 75 76  1  0
 76 77  2  0
 71  4  1  0
 77 72  1  0
 48 12  1  0
 63 49  1  0
 69 64  1  0
 25 20  1  0
 31 26  1  0
 46 32  1  0
 57 52  1  0
 63 58  1  0
 40 35  1  0
 46 41  1  0
M  END
>  <Candidate_ID>  (85) 
CAND_R2_085

>  <Candidate_Name>  (85) 
TDCA-DOPO-2-benzamide-linker

>  <Parent_Seed_ID>  (85) 
TRAIN_136

>  <Parent_Name>  (85) 
TDCA-DOPO-2

>  <Transformation_Code>  (85) 
benzamide_linker

>  <Design_Family>  (85) 
P-N

>  <Preparation_Type>  (85) 
Additive

>  <Synthesis_Level>  (85) 
B

>  <Parent_Tanimoto_r3>  (85) 
0.7439024390243902

>  <Max_Train_Tanimoto_r3>  (85) 
0.7439024390243902

>  <Risk_Flags>  (85) 
none

$$$$
CAND_R2_086 | TDCA-DOPO-2-phenyl
     RDKit          2D

 74 85  0  0  0  0  0  0  0  0999 V2000
    2.5733  -14.2376    0.0000 O   0  0  0  0  0  0  0  0  0  0  0  0
    2.3128  -12.7604    0.0000 P   0  0  0  0  0  0  0  0  0  0  0  0
    2.0524  -11.2832    0.0000 O   0  0  0  0  0  0  0  0  0  0  0  0
    3.2014  -10.3190    0.0000 C   0  0  0  0  0  0  0  0  0  0  0  0
    2.9410   -8.8418    0.0000 C   0  0  0  0  0  0  0  0  0  0  0  0
    4.0900   -7.8776    0.0000 C   0  0  0  0  0  0  0  0  0  0  0  0
    3.8296   -6.4004    0.0000 C   0  0  0  0  0  0  0  0  0  0  0  0
    2.4200   -5.8874    0.0000 C   0  0  0  0  0  0  0  0  0  0  0  0
    2.1595   -4.4101    0.0000 C   0  0  0  0  0  0  0  0  0  0  0  0
    0.7500   -3.8971    0.0000 O   0  0  0  0  0  0  0  0  0  0  0  0
   -0.3991   -4.8613    0.0000 P   0  0  0  0  0  0  0  0  0  0  0  0
   -1.5481   -5.8255    0.0000 O   0  0  0  0  0  0  0  0  0  0  0  0
    0.5651   -6.0104    0.0000 C   0  0  0  0  0  0  0  0  0  0  0  0
    0.0521   -7.4199    0.0000 C   0  0  0  0  0  0  0  0  0  0  0  0
    1.0163   -8.5690    0.0000 C   0  0  0  0  0  0  0  0  0  0  0  0
    2.4935   -8.3085    0.0000 C   0  0  0  0  0  0  0  0  0  0  0  0
    3.0065   -6.8990    0.0000 C   0  0  0  0  0  0  0  0  0  0  0  0
    2.0423   -5.7499    0.0000 C   0  0  0  0  0  0  0  0  0  0  0  0
   -1.3632   -3.7122    0.0000 C   0  0  0  0  0  0  0  0  0  0  0  0
   -2.8405   -3.9727    0.0000 C   0  0  0  0  0  0  0  0  0  0  0  0
   -3.8046   -2.8236    0.0000 C   0  0  0  0  0  0  0  0  0  0  0  0
   -3.2916   -1.4141    0.0000 C   0  0  0  0  0  0  0  0  0  0  0  0
   -4.2558   -0.2650    0.0000 C   0  0  0  0  0  0  0  0  0  0  0  0
   -5.7330   -0.5255    0.0000 C   0  0  0  0  0  0  0  0  0  0  0  0
   -6.6972    0.6236    0.0000 C   0  0  0  0  0  0  0  0  0  0  0  0
   -6.1842    2.0331    0.0000 C   0  0  0  0  0  0  0  0  0  0  0  0
   -4.7069    2.2936    0.0000 C   0  0  0  0  0  0  0  0  0  0  0  0
   -3.7428    1.1445    0.0000 C   0  0  0  0  0  0  0  0  0  0  0  0
   -1.8144   -1.1536    0.0000 C   0  0  0  0  0  0  0  0  0  0  0  0
   -0.8502   -2.3027    0.0000 C   0  0  0  0  0  0  0  0  0  0  0  0
    3.3086   -3.4460    0.0000 P   0  0  0  0  0  0  0  0  0  0  0  0
    4.0586   -4.7450    0.0000 O   0  0  0  0  0  0  0  0  0  0  0  0
    2.1595   -2.4818    0.0000 O   0  0  0  0  0  0  0  0  0  0  0  0
    2.4200   -1.0046    0.0000 C   0  0  0  0  0  0  0  0  0  0  0  0
    1.2709   -0.0404    0.0000 C   0  0  0  0  0  0  0  0  0  0  0  0
    1.5314    1.4368    0.0000 C   0  0  0  0  0  0  0  0  0  0  0  0
    2.9410    1.9499    0.0000 C   0  0  0  0  0  0  0  0  0  0  0  0
    4.0900    0.9857    0.0000 C   0  0  0  0  0  0  0  0  0  0  0  0
    3.8296   -0.4915    0.0000 C   0  0  0  0  0  0  0  0  0  0  0  0
    4.9786   -1.4557    0.0000 C   0  0  0  0  0  0  0  0  0  0  0  0
    6.3882   -0.9427    0.0000 C   0  0  0  0  0  0  0  0  0  0  0  0
    7.5372   -1.9069    0.0000 C   0  0  0  0  0  0  0  0  0  0  0  0
    7.2768   -3.3841    0.0000 C   0  0  0  0  0  0  0  0  0  0  0  0
    5.8672   -3.8971    0.0000 C   0  0  0  0  0  0  0  0  0  0  0  0
    4.7181   -2.9329    0.0000 C   0  0  0  0  0  0  0  0  0  0  0  0
    1.2709   -6.8515    0.0000 C   0  0  0  0  0  0  0  0  0  0  0  0
    1.5314   -8.3287    0.0000 C   0  0  0  0  0  0  0  0  0  0  0  0
    4.6110  -10.8320    0.0000 P   0  0  0  0  0  0  0  0  0  0  0  0
    4.8714   -9.3548    0.0000 O   0  0  0  0  0  0  0  0  0  0  0  0
    3.8610  -12.1311    0.0000 O   0  0  0  0  0  0  0  0  0  0  0  0
    4.6110  -13.4301    0.0000 C   0  0  0  0  0  0  0  0  0  0  0  0
    3.8610  -14.7291    0.0000 C   0  0  0  0  0  0  0  0  0  0  0  0
    4.6110  -16.0282    0.0000 C   0  0  0  0  0  0  0  0  0  0  0  0
    6.1110  -16.0282    0.0000 C   0  0  0  0  0  0  0  0  0  0  0  0
    6.8610  -14.7291    0.0000 C   0  0  0  0  0  0  0  0  0  0  0  0
    6.1110  -13.4301    0.0000 C   0  0  0  0  0  0  0  0  0  0  0  0
    6.8610  -12.1311    0.0000 C   0  0  0  0  0  0  0  0  0  0  0  0
    8.3610  -12.1311    0.0000 C   0  0  0  0  0  0  0  0  0  0  0  0
    9.1110  -10.8320    0.0000 C   0  0  0  0  0  0  0  0  0  0  0  0
    8.3610   -9.5330    0.0000 C   0  0  0  0  0  0  0  0  0  0  0  0
    6.8610   -9.5330    0.0000 C   0  0  0  0  0  0  0  0  0  0  0  0
    6.1110  -10.8320    0.0000 C   0  0  0  0  0  0  0  0  0  0  0  0
    0.8356  -13.0209    0.0000 C   0  0  0  0  0  0  0  0  0  0  0  0
   -0.1286  -11.8718    0.0000 C   0  0  0  0  0  0  0  0  0  0  0  0
   -1.6058  -12.1323    0.0000 C   0  0  0  0  0  0  0  0  0  0  0  0
   -2.1188  -13.5418    0.0000 C   0  0  0  0  0  0  0  0  0  0  0  0
   -1.1546  -14.6909    0.0000 C   0  0  0  0  0  0  0  0  0  0  0  0
    0.3226  -14.4304    0.0000 C   0  0  0  0  0  0  0  0  0  0  0  0
    3.7900  -12.4999    0.0000 C   0  0  0  0  0  0  0  0  0  0  0  0
    4.7542  -13.6490    0.0000 C   0  0  0  0  0  0  0  0  0  0  0  0
    6.2314  -13.3885    0.0000 C   0  0  0  0  0  0  0  0  0  0  0  0
    6.7445  -11.9790    0.0000 C   0  0  0  0  0  0  0  0  0  0  0  0
    5.7803  -10.8299    0.0000 C   0  0  0  0  0  0  0  0  0  0  0  0
    4.3031  -11.0904    0.0000 C   0  0  0  0  0  0  0  0  0  0  0  0
  1  2  2  0
  2  3  1  0
  3  4  1  0
  4  5  1  0
  5  6  2  0
  6  7  1  0
  7  8  2  0
  8  9  1  0
  9 10  1  0
 10 11  1  0
 11 12  2  0
 11 13  1  0
 13 14  2  0
 14 15  1  0
 15 16  2  0
 16 17  1  0
 17 18  2  0
 11 19  1  0
 19 20  2  0
 20 21  1  0
 21 22  2  0
 22 23  1  0
 23 24  2  0
 24 25  1  0
 25 26  2  0
 26 27  1  0
 27 28  2  0
 22 29  1  0
 29 30  2  0
  9 31  1  0
 31 32  2  0
 31 33  1  0
 33 34  1  0
 34 35  2  0
 35 36  1  0
 36 37  2  0
 37 38  1  0
 38 39  2  0
 39 40  1  0
 40 41  2  0
 41 42  1  0
 42 43  2  0
 43 44  1  0
 44 45  2  0
  8 46  1  0
 46 47  2  0
  4 48  1  0
 48 49  2  0
 48 50  1  0
 50 51  1  0
 51 52  2  0
 52 53  1  0
 53 54  2  0
 54 55  1  0
 55 56  2  0
 56 57  1  0
 57 58  2  0
 58 59  1  0
 59 60  2  0
 60 61  1  0
 61 62  2  0
  2 63  1  0
 63 64  2  0
 64 65  1  0
 65 66  2  0
 66 67  1  0
 67 68  2  0
  2 69  1  0
 69 70  2  0
 70 71  1  0
 71 72  2  0
 72 73  1  0
 73 74  2  0
 47  5  1  0
 62 48  1  0
 68 63  1  0
 74 69  1  0
 18 13  1  0
 30 19  1  0
 45 31  1  0
 56 51  1  0
 62 57  1  0
 28 23  1  0
 39 34  1  0
 45 40  1  0
M  END
>  <Candidate_ID>  (86) 
CAND_R2_086

>  <Candidate_Name>  (86) 
TDCA-DOPO-2-phenyl

>  <Parent_Seed_ID>  (86) 
TRAIN_136

>  <Parent_Name>  (86) 
TDCA-DOPO-2

>  <Transformation_Code>  (86) 
phenyl

>  <Design_Family>  (86) 
P-only

>  <Preparation_Type>  (86) 
Additive

>  <Synthesis_Level>  (86) 
B

>  <Parent_Tanimoto_r3>  (86) 
0.8356164383561644

>  <Max_Train_Tanimoto_r3>  (86) 
0.8356164383561644

>  <Risk_Flags>  (86) 
none

$$$$
CAND_R2_087 | TDCA-DOPO-2-biphenyl
     RDKit          2D

 80 92  0  0  0  0  0  0  0  0999 V2000
    5.1319  -13.7864    0.0000 O   0  0  0  0  0  0  0  0  0  0  0  0
    4.8714  -12.3092    0.0000 P   0  0  0  0  0  0  0  0  0  0  0  0
    4.6110  -10.8320    0.0000 O   0  0  0  0  0  0  0  0  0  0  0  0
    3.2014  -10.3190    0.0000 C   0  0  0  0  0  0  0  0  0  0  0  0
    2.9410   -8.8418    0.0000 C   0  0  0  0  0  0  0  0  0  0  0  0
    1.5314   -8.3287    0.0000 C   0  0  0  0  0  0  0  0  0  0  0  0
    1.2709   -6.8515    0.0000 C   0  0  0  0  0  0  0  0  0  0  0  0
    2.4200   -5.8874    0.0000 C   0  0  0  0  0  0  0  0  0  0  0  0
    2.1595   -4.4101    0.0000 C   0  0  0  0  0  0  0  0  0  0  0  0
    3.3086   -3.4460    0.0000 O   0  0  0  0  0  0  0  0  0  0  0  0
    4.7181   -3.9590    0.0000 P   0  0  0  0  0  0  0  0  0  0  0  0
    6.1277   -4.4720    0.0000 O   0  0  0  0  0  0  0  0  0  0  0  0
    4.2051   -5.3685    0.0000 C   0  0  0  0  0  0  0  0  0  0  0  0
    5.1693   -6.5176    0.0000 C   0  0  0  0  0  0  0  0  0  0  0  0
    4.6563   -7.9271    0.0000 C   0  0  0  0  0  0  0  0  0  0  0  0
    3.1791   -8.1876    0.0000 C   0  0  0  0  0  0  0  0  0  0  0  0
    2.2149   -7.0385    0.0000 C   0  0  0  0  0  0  0  0  0  0  0  0
    2.7279   -5.6290    0.0000 C   0  0  0  0  0  0  0  0  0  0  0  0
    5.2312   -2.5495    0.0000 C   0  0  0  0  0  0  0  0  0  0  0  0
    6.7084   -2.2890    0.0000 C   0  0  0  0  0  0  0  0  0  0  0  0
    7.2214   -0.8794    0.0000 C   0  0  0  0  0  0  0  0  0  0  0  0
    6.2572    0.2696    0.0000 C   0  0  0  0  0  0  0  0  0  0  0  0
    6.7703    1.6792    0.0000 C   0  0  0  0  0  0  0  0  0  0  0  0
    8.2475    1.9396    0.0000 C   0  0  0  0  0  0  0  0  0  0  0  0
    8.7605    3.3492    0.0000 C   0  0  0  0  0  0  0  0  0  0  0  0
    7.7963    4.4982    0.0000 C   0  0  0  0  0  0  0  0  0  0  0  0
    8.3094    5.9078    0.0000 C   0  0  0  0  0  0  0  0  0  0  0  0
    9.7866    6.1683    0.0000 C   0  0  0  0  0  0  0  0  0  0  0  0
   10.2996    7.5778    0.0000 C   0  0  0  0  0  0  0  0  0  0  0  0
    9.3354    8.7269    0.0000 C   0  0  0  0  0  0  0  0  0  0  0  0
    7.8582    8.4664    0.0000 C   0  0  0  0  0  0  0  0  0  0  0  0
    7.3452    7.0568    0.0000 C   0  0  0  0  0  0  0  0  0  0  0  0
    6.3191    4.2378    0.0000 C   0  0  0  0  0  0  0  0  0  0  0  0
    5.8061    2.8282    0.0000 C   0  0  0  0  0  0  0  0  0  0  0  0
    4.7800    0.0092    0.0000 C   0  0  0  0  0  0  0  0  0  0  0  0
    4.2670   -1.4004    0.0000 C   0  0  0  0  0  0  0  0  0  0  0  0
    0.7500   -3.8971    0.0000 P   0  0  0  0  0  0  0  0  0  0  0  0
    0.4895   -5.3743    0.0000 O   0  0  0  0  0  0  0  0  0  0  0  0
    1.5000   -2.5981    0.0000 O   0  0  0  0  0  0  0  0  0  0  0  0
    0.7500   -1.2990    0.0000 C   0  0  0  0  0  0  0  0  0  0  0  0
    1.5000    0.0000    0.0000 C   0  0  0  0  0  0  0  0  0  0  0  0
    0.7500    1.2990    0.0000 C   0  0  0  0  0  0  0  0  0  0  0  0
   -0.7500    1.2990    0.0000 C   0  0  0  0  0  0  0  0  0  0  0  0
   -1.5000    0.0000    0.0000 C   0  0  0  0  0  0  0  0  0  0  0  0
   -0.7500   -1.2990    0.0000 C   0  0  0  0  0  0  0  0  0  0  0  0
   -1.5000   -2.5981    0.0000 C   0  0  0  0  0  0  0  0  0  0  0  0
   -3.0000   -2.5981    0.0000 C   0  0  0  0  0  0  0  0  0  0  0  0
   -3.7500   -3.8971    0.0000 C   0  0  0  0  0  0  0  0  0  0  0  0
   -3.0000   -5.1962    0.0000 C   0  0  0  0  0  0  0  0  0  0  0  0
   -1.5000   -5.1962    0.0000 C   0  0  0  0  0  0  0  0  0  0  0  0
   -0.7500   -3.8971    0.0000 C   0  0  0  0  0  0  0  0  0  0  0  0
    3.8296   -6.4004    0.0000 C   0  0  0  0  0  0  0  0  0  0  0  0
    4.0900   -7.8776    0.0000 C   0  0  0  0  0  0  0  0  0  0  0  0
    2.0524  -11.2832    0.0000 P   0  0  0  0  0  0  0  0  0  0  0  0
    1.3024   -9.9841    0.0000 O   0  0  0  0  0  0  0  0  0  0  0  0
    3.2014  -12.2474    0.0000 O   0  0  0  0  0  0  0  0  0  0  0  0
    2.9410  -13.7246    0.0000 C   0  0  0  0  0  0  0  0  0  0  0  0
    4.0900  -14.6887    0.0000 C   0  0  0  0  0  0  0  0  0  0  0  0
    3.8296  -16.1660    0.0000 C   0  0  0  0  0  0  0  0  0  0  0  0
    2.4200  -16.6790    0.0000 C   0  0  0  0  0  0  0  0  0  0  0  0
    1.2709  -15.7148    0.0000 C   0  0  0  0  0  0  0  0  0  0  0  0
    1.5314  -14.2376    0.0000 C   0  0  0  0  0  0  0  0  0  0  0  0
    0.3824  -13.2734    0.0000 C   0  0  0  0  0  0  0  0  0  0  0  0
   -1.0272  -13.7864    0.0000 C   0  0  0  0  0  0  0  0  0  0  0  0
   -2.1763  -12.8223    0.0000 C   0  0  0  0  0  0  0  0  0  0  0  0
   -1.9158  -11.3451    0.0000 C   0  0  0  0  0  0  0  0  0  0  0  0
   -0.5062  -10.8320    0.0000 C   0  0  0  0  0  0  0  0  0  0  0  0
    0.6428  -11.7962    0.0000 C   0  0  0  0  0  0  0  0  0  0  0  0
    6.3487  -12.0488    0.0000 C   0  0  0  0  0  0  0  0  0  0  0  0
    6.8617  -10.6392    0.0000 C   0  0  0  0  0  0  0  0  0  0  0  0
    8.3389  -10.3787    0.0000 C   0  0  0  0  0  0  0  0  0  0  0  0
    9.3031  -11.5278    0.0000 C   0  0  0  0  0  0  0  0  0  0  0  0
    8.7900  -12.9374    0.0000 C   0  0  0  0  0  0  0  0  0  0  0  0
    7.3128  -13.1978    0.0000 C   0  0  0  0  0  0  0  0  0  0  0  0
    3.3942  -12.5697    0.0000 C   0  0  0  0  0  0  0  0  0  0  0  0
    2.8812  -13.9792    0.0000 C   0  0  0  0  0  0  0  0  0  0  0  0
    1.4040  -14.2397    0.0000 C   0  0  0  0  0  0  0  0  0  0  0  0
    0.4398  -13.0906    0.0000 C   0  0  0  0  0  0  0  0  0  0  0  0
    0.9528  -11.6811    0.0000 C   0  0  0  0  0  0  0  0  0  0  0  0
    2.4300  -11.4206    0.0000 C   0  0  0  0  0  0  0  0  0  0  0  0
  1  2  2  0
  2  3  1  0
  3  4  1  0
  4  5  1  0
  5  6  2  0
  6  7  1  0
  7  8  2  0
  8  9  1  0
  9 10  1  0
 10 11  1  0
 11 12  2  0
 11 13  1  0
 13 14  2  0
 14 15  1  0
 15 16  2  0
 16 17  1  0
 17 18  2  0
 11 19  1  0
 19 20  2  0
 20 21  1  0
 21 22  2  0
 22 23  1  0
 23 24  2  0
 24 25  1  0
 25 26  2  0
 26 27  1  0
 27 28  2  0
 28 29  1  0
 29 30  2  0
 30 31  1  0
 31 32  2  0
 26 33  1  0
 33 34  2  0
 22 35  1  0
 35 36  2  0
  9 37  1  0
 37 38  2  0
 37 39  1  0
 39 40  1  0
 40 41  2  0
 41 42  1  0
 42 43  2  0
 43 44  1  0
 44 45  2  0
 45 46  1  0
 46 47  2  0
 47 48  1  0
 48 49  2  0
 49 50  1  0
 50 51  2  0
  8 52  1  0
 52 53  2  0
  4 54  1  0
 54 55  2  0
 54 56  1  0
 56 57  1  0
 57 58  2  0
 58 59  1  0
 59 60  2  0
 60 61  1  0
 61 62  2  0
 62 63  1  0
 63 64  2  0
 64 65  1  0
 65 66  2  0
 66 67  1  0
 67 68  2  0
  2 69  1  0
 69 70  2  0
 70 71  1  0
 71 72  2  0
 72 73  1  0
 73 74  2  0
  2 75  1  0
 75 76  2  0
 76 77  1  0
 77 78  2  0
 78 79  1  0
 79 80  2  0
 53  5  1  0
 68 54  1  0
 74 69  1  0
 80 75  1  0
 18 13  1  0
 36 19  1  0
 51 37  1  0
 62 57  1  0
 68 63  1  0
 34 23  1  0
 45 40  1  0
 51 46  1  0
 32 27  1  0
M  END
>  <Candidate_ID>  (87) 
CAND_R2_087

>  <Candidate_Name>  (87) 
TDCA-DOPO-2-biphenyl

>  <Parent_Seed_ID>  (87) 
TRAIN_136

>  <Parent_Name>  (87) 
TDCA-DOPO-2

>  <Transformation_Code>  (87) 
biphenyl

>  <Design_Family>  (87) 
P-only

>  <Preparation_Type>  (87) 
Additive

>  <Synthesis_Level>  (87) 
B

>  <Parent_Tanimoto_r3>  (87) 
0.8243243243243243

>  <Max_Train_Tanimoto_r3>  (87) 
0.8243243243243243

>  <Risk_Flags>  (87) 
none

$$$$
CAND_R2_088 | DOPO-HPM-amino
     RDKit          2D

 51 58  0  0  0  0  0  0  0  0999 V2000
    9.6269   -5.7519    0.0000 N   0  0  0  0  0  0  0  0  0  0  0  0
    8.5479   -4.7099    0.0000 C   0  0  0  0  0  0  0  0  0  0  0  0
    7.1060   -5.1234    0.0000 C   0  0  0  0  0  0  0  0  0  0  0  0
    6.0270   -4.0814    0.0000 C   0  0  0  0  0  0  0  0  0  0  0  0
    4.5851   -4.4948    0.0000 N   0  0  0  0  0  0  0  0  0  0  0  0
    4.0721   -5.9044    0.0000 C   0  0  0  0  0  0  0  0  0  0  0  0
    4.9109   -7.1479    0.0000 O   0  0  0  0  0  0  0  0  0  0  0  0
    2.5730   -5.8520    0.0000 C   0  0  0  0  0  0  0  0  0  0  0  0
    2.1595   -4.4101    0.0000 C   0  0  0  0  0  0  0  0  0  0  0  0
    0.7500   -3.8971    0.0000 P   0  0  0  0  0  0  0  0  0  0  0  0
    0.4895   -5.3743    0.0000 O   0  0  0  0  0  0  0  0  0  0  0  0
    1.5000   -2.5981    0.0000 O   0  0  0  0  0  0  0  0  0  0  0  0
    0.7500   -1.2990    0.0000 C   0  0  0  0  0  0  0  0  0  0  0  0
    1.5000    0.0000    0.0000 C   0  0  0  0  0  0  0  0  0  0  0  0
    0.7500    1.2990    0.0000 C   0  0  0  0  0  0  0  0  0  0  0  0
   -0.7500    1.2990    0.0000 C   0  0  0  0  0  0  0  0  0  0  0  0
   -1.5000    0.0000    0.0000 C   0  0  0  0  0  0  0  0  0  0  0  0
   -0.7500   -1.2990    0.0000 C   0  0  0  0  0  0  0  0  0  0  0  0
   -1.5000   -2.5981    0.0000 C   0  0  0  0  0  0  0  0  0  0  0  0
   -3.0000   -2.5981    0.0000 C   0  0  0  0  0  0  0  0  0  0  0  0
   -3.7500   -3.8971    0.0000 C   0  0  0  0  0  0  0  0  0  0  0  0
   -3.0000   -5.1962    0.0000 C   0  0  0  0  0  0  0  0  0  0  0  0
   -1.5000   -5.1962    0.0000 C   0  0  0  0  0  0  0  0  0  0  0  0
   -0.7500   -3.8971    0.0000 C   0  0  0  0  0  0  0  0  0  0  0  0
    3.4031   -3.5714    0.0000 C   0  0  0  0  0  0  0  0  0  0  0  0
    3.4554   -2.0723    0.0000 O   0  0  0  0  0  0  0  0  0  0  0  0
    6.3899   -2.6259    0.0000 C   0  0  0  0  0  0  0  0  0  0  0  0
    7.8318   -2.2125    0.0000 C   0  0  0  0  0  0  0  0  0  0  0  0
    8.9108   -3.2545    0.0000 C   0  0  0  0  0  0  0  0  0  0  0  0
   10.3527   -2.8410    0.0000 O   0  0  0  0  0  0  0  0  0  0  0  0
   10.7156   -1.3856    0.0000 C   0  0  0  0  0  0  0  0  0  0  0  0
   12.1575   -0.9721    0.0000 C   0  0  0  0  0  0  0  0  0  0  0  0
   13.2365   -2.0141    0.0000 O   0  0  0  0  0  0  0  0  0  0  0  0
   12.5203    0.4833    0.0000 C   0  0  0  0  0  0  0  0  0  0  0  0
   13.9622    0.8968    0.0000 N   0  0  0  0  0  0  0  0  0  0  0  0
   15.0412   -0.1452    0.0000 C   0  0  0  0  0  0  0  0  0  0  0  0
   14.6784   -1.6007    0.0000 O   0  0  0  0  0  0  0  0  0  0  0  0
   16.4831    0.2682    0.0000 N   0  0  0  0  0  0  0  0  0  0  0  0
   17.5621   -0.7737    0.0000 C   0  0  0  0  0  0  0  0  0  0  0  0
   19.0040   -0.3603    0.0000 C   0  0  0  0  0  0  0  0  0  0  0  0
   20.0460    0.7187    0.0000 C   0  0  0  0  0  0  0  0  0  0  0  0
   20.4595   -0.7232    0.0000 O   0  0  0  0  0  0  0  0  0  0  0  0
   16.8460    1.7237    0.0000 C   0  0  0  0  0  0  0  0  0  0  0  0
   18.2879    2.1371    0.0000 O   0  0  0  0  0  0  0  0  0  0  0  0
   15.7670    2.7657    0.0000 N   0  0  0  0  0  0  0  0  0  0  0  0
   16.1299    4.2211    0.0000 C   0  0  0  0  0  0  0  0  0  0  0  0
   15.0509    5.2631    0.0000 C   0  0  0  0  0  0  0  0  0  0  0  0
   13.5954    5.6260    0.0000 C   0  0  0  0  0  0  0  0  0  0  0  0
   14.6374    6.7050    0.0000 O   0  0  0  0  0  0  0  0  0  0  0  0
   14.3251    2.3522    0.0000 C   0  0  0  0  0  0  0  0  0  0  0  0
   13.2461    3.3942    0.0000 O   0  0  0  0  0  0  0  0  0  0  0  0
  1  2  1  0
  2  3  2  0
  3  4  1  0
  4  5  1  0
  5  6  1  0
  6  7  2  0
  6  8  1  0
  8  9  1  0
  9 10  1  0
 10 11  2  0
 10 12  1  0
 12 13  1  0
 13 14  2  0
 14 15  1  0
 15 16  2  0
 16 17  1  0
 17 18  2  0
 18 19  1  0
 19 20  2  0
 20 21  1  0
 21 22  2  0
 22 23  1  0
 23 24  2  0
  9 25  1  0
 25 26  2  0
  4 27  2  0
 27 28  1  0
 28 29  2  0
 29 30  1  0
 30 31  1  0
 31 32  1  0
 32 33  1  0
 32 34  1  0
 34 35  1  0
 35 36  1  0
 36 37  2  0
 36 38  1  0
 38 39  1  0
 39 40  1  0
 40 41  1  0
 41 42  1  0
 38 43  1  0
 43 44  2  0
 43 45  1  0
 45 46  1  0
 46 47  1  0
 47 48  1  0
 48 49  1  0
 45 50  1  0
 50 51  2  0
 29  2  1  0
 50 35  1  0
 25  5  1  0
 42 40  1  0
 49 47  1  0
 24 10  1  0
 18 13  1  0
 24 19  1  0
M  END
>  <Candidate_ID>  (88) 
CAND_R2_088

>  <Candidate_Name>  (88) 
DOPO-HPM-amino

>  <Parent_Seed_ID>  (88) 
TRAIN_007

>  <Parent_Name>  (88) 
DOPO-HPM

>  <Transformation_Code>  (88) 
amino

>  <Design_Family>  (88) 
P-N

>  <Preparation_Type>  (88) 
Co-curing

>  <Synthesis_Level>  (88) 
B

>  <Parent_Tanimoto_r3>  (88) 
0.7304347826086957

>  <Max_Train_Tanimoto_r3>  (88) 
0.7304347826086957

>  <Risk_Flags>  (88) 
none

$$$$
CAND_R2_089 | DOPO-HPM-hydroxymethyl
     RDKit          2D

 52 59  0  0  0  0  0  0  0  0999 V2000
    6.0270   -4.0814    0.0000 O   0  0  0  0  0  0  0  0  0  0  0  0
    4.5851   -4.4948    0.0000 C   0  0  0  0  0  0  0  0  0  0  0  0
    3.4031   -3.5714    0.0000 C   0  0  0  0  0  0  0  0  0  0  0  0
    2.1595   -4.4101    0.0000 C   0  0  0  0  0  0  0  0  0  0  0  0
    0.7500   -3.8971    0.0000 P   0  0  0  0  0  0  0  0  0  0  0  0
    0.4895   -5.3743    0.0000 O   0  0  0  0  0  0  0  0  0  0  0  0
    1.5000   -2.5981    0.0000 O   0  0  0  0  0  0  0  0  0  0  0  0
    0.7500   -1.2990    0.0000 C   0  0  0  0  0  0  0  0  0  0  0  0
    1.5000    0.0000    0.0000 C   0  0  0  0  0  0  0  0  0  0  0  0
    0.7500    1.2990    0.0000 C   0  0  0  0  0  0  0  0  0  0  0  0
   -0.7500    1.2990    0.0000 C   0  0  0  0  0  0  0  0  0  0  0  0
   -1.5000    0.0000    0.0000 C   0  0  0  0  0  0  0  0  0  0  0  0
   -0.7500   -1.2990    0.0000 C   0  0  0  0  0  0  0  0  0  0  0  0
   -1.5000   -2.5981    0.0000 C   0  0  0  0  0  0  0  0  0  0  0  0
   -3.0000   -2.5981    0.0000 C   0  0  0  0  0  0  0  0  0  0  0  0
   -3.7500   -3.8971    0.0000 C   0  0  0  0  0  0  0  0  0  0  0  0
   -3.0000   -5.1962    0.0000 C   0  0  0  0  0  0  0  0  0  0  0  0
   -1.5000   -5.1962    0.0000 C   0  0  0  0  0  0  0  0  0  0  0  0
   -0.7500   -3.8971    0.0000 C   0  0  0  0  0  0  0  0  0  0  0  0
    2.5730   -5.8520    0.0000 C   0  0  0  0  0  0  0  0  0  0  0  0
    1.6495   -7.0341    0.0000 O   0  0  0  0  0  0  0  0  0  0  0  0
    4.0721   -5.9044    0.0000 N   0  0  0  0  0  0  0  0  0  0  0  0
    4.9109   -7.1479    0.0000 C   0  0  0  0  0  0  0  0  0  0  0  0
    4.2533   -8.4961    0.0000 C   0  0  0  0  0  0  0  0  0  0  0  0
    5.0921   -9.7397    0.0000 C   0  0  0  0  0  0  0  0  0  0  0  0
    6.5884   -9.6351    0.0000 C   0  0  0  0  0  0  0  0  0  0  0  0
    7.4272  -10.8786    0.0000 O   0  0  0  0  0  0  0  0  0  0  0  0
    6.7697  -12.2268    0.0000 C   0  0  0  0  0  0  0  0  0  0  0  0
    7.6085  -13.4704    0.0000 C   0  0  0  0  0  0  0  0  0  0  0  0
    9.1048  -13.3657    0.0000 O   0  0  0  0  0  0  0  0  0  0  0  0
    6.9509  -14.8186    0.0000 C   0  0  0  0  0  0  0  0  0  0  0  0
    7.7897  -16.0621    0.0000 N   0  0  0  0  0  0  0  0  0  0  0  0
    7.1321  -17.4103    0.0000 C   0  0  0  0  0  0  0  0  0  0  0  0
    5.6358  -17.5149    0.0000 O   0  0  0  0  0  0  0  0  0  0  0  0
    7.9709  -18.6539    0.0000 N   0  0  0  0  0  0  0  0  0  0  0  0
    7.3134  -20.0020    0.0000 C   0  0  0  0  0  0  0  0  0  0  0  0
    8.1522  -21.2456    0.0000 C   0  0  0  0  0  0  0  0  0  0  0  0
    9.5004  -21.9032    0.0000 C   0  0  0  0  0  0  0  0  0  0  0  0
    8.2568  -22.7419    0.0000 O   0  0  0  0  0  0  0  0  0  0  0  0
    9.4673  -18.5492    0.0000 C   0  0  0  0  0  0  0  0  0  0  0  0
   10.3061  -19.7928    0.0000 O   0  0  0  0  0  0  0  0  0  0  0  0
   10.1248  -17.2010    0.0000 N   0  0  0  0  0  0  0  0  0  0  0  0
   11.6212  -17.0964    0.0000 C   0  0  0  0  0  0  0  0  0  0  0  0
   12.2787  -15.7482    0.0000 C   0  0  0  0  0  0  0  0  0  0  0  0
   12.1741  -14.2519    0.0000 C   0  0  0  0  0  0  0  0  0  0  0  0
   13.5223  -14.9094    0.0000 O   0  0  0  0  0  0  0  0  0  0  0  0
    9.2860  -15.9575    0.0000 C   0  0  0  0  0  0  0  0  0  0  0  0
    9.9436  -14.6093    0.0000 O   0  0  0  0  0  0  0  0  0  0  0  0
    7.2460   -8.2869    0.0000 C   0  0  0  0  0  0  0  0  0  0  0  0
    8.7424   -8.1822    0.0000 C   0  0  0  0  0  0  0  0  0  0  0  0
    9.3999   -6.8340    0.0000 O   0  0  0  0  0  0  0  0  0  0  0  0
    6.4072   -7.0433    0.0000 C   0  0  0  0  0  0  0  0  0  0  0  0
  1  2  2  0
  2  3  1  0
  3  4  1  0
  4  5  1  0
  5  6  2  0
  5  7  1  0
  7  8  1  0
  8  9  2  0
  9 10  1  0
 10 11  2  0
 11 12  1  0
 12 13  2  0
 13 14  1  0
 14 15  2  0
 15 16  1  0
 16 17  2  0
 17 18  1  0
 18 19  2  0
  4 20  1  0
 20 21  2  0
 20 22  1  0
 22 23  1  0
 23 24  2  0
 24 25  1  0
 25 26  2  0
 26 27  1  0
 27 28  1  0
 28 29  1  0
 29 30  1  0
 29 31  1  0
 31 32  1  0
 32 33  1  0
 33 34  2  0
 33 35  1  0
 35 36  1  0
 36 37  1  0
 37 38  1  0
 38 39  1  0
 35 40  1  0
 40 41  2  0
 40 42  1  0
 42 43  1  0
 43 44  1  0
 44 45  1  0
 45 46  1  0
 42 47  1  0
 47 48  2  0
 26 49  1  0
 49 50  1  0
 50 51  1  0
 49 52  2  0
 22  2  1  0
 52 23  1  0
 19  5  1  0
 47 32  1  0
 13  8  1  0
 19 14  1  0
 39 37  1  0
 46 44  1  0
M  END
>  <Candidate_ID>  (89) 
CAND_R2_089

>  <Candidate_Name>  (89) 
DOPO-HPM-hydroxymethyl

>  <Parent_Seed_ID>  (89) 
TRAIN_007

>  <Parent_Name>  (89) 
DOPO-HPM

>  <Transformation_Code>  (89) 
hydroxymethyl

>  <Design_Family>  (89) 
P-N

>  <Preparation_Type>  (89) 
Additive

>  <Synthesis_Level>  (89) 
B

>  <Parent_Tanimoto_r3>  (89) 
0.7241379310344828

>  <Max_Train_Tanimoto_r3>  (89) 
0.7241379310344828

>  <Risk_Flags>  (89) 
none

$$$$
CAND_R2_090 | DOPO-HPM-carboxamide
     RDKit          2D

 53 60  0  0  0  0  0  0  0  0999 V2000
    9.2640   -7.2074    0.0000 N   0  0  0  0  0  0  0  0  0  0  0  0
    9.6269   -5.7519    0.0000 C   0  0  0  0  0  0  0  0  0  0  0  0
   11.0688   -5.3385    0.0000 O   0  0  0  0  0  0  0  0  0  0  0  0
    8.5479   -4.7099    0.0000 C   0  0  0  0  0  0  0  0  0  0  0  0
    7.1060   -5.1234    0.0000 C   0  0  0  0  0  0  0  0  0  0  0  0
    6.0270   -4.0814    0.0000 C   0  0  0  0  0  0  0  0  0  0  0  0
    4.5851   -4.4948    0.0000 N   0  0  0  0  0  0  0  0  0  0  0  0
    4.0721   -5.9044    0.0000 C   0  0  0  0  0  0  0  0  0  0  0  0
    4.9109   -7.1479    0.0000 O   0  0  0  0  0  0  0  0  0  0  0  0
    2.5730   -5.8520    0.0000 C   0  0  0  0  0  0  0  0  0  0  0  0
    2.1595   -4.4101    0.0000 C   0  0  0  0  0  0  0  0  0  0  0  0
    0.7500   -3.8971    0.0000 P   0  0  0  0  0  0  0  0  0  0  0  0
    0.4895   -5.3743    0.0000 O   0  0  0  0  0  0  0  0  0  0  0  0
    1.5000   -2.5981    0.0000 O   0  0  0  0  0  0  0  0  0  0  0  0
    0.7500   -1.2990    0.0000 C   0  0  0  0  0  0  0  0  0  0  0  0
    1.5000    0.0000    0.0000 C   0  0  0  0  0  0  0  0  0  0  0  0
    0.7500    1.2990    0.0000 C   0  0  0  0  0  0  0  0  0  0  0  0
   -0.7500    1.2990    0.0000 C   0  0  0  0  0  0  0  0  0  0  0  0
   -1.5000    0.0000    0.0000 C   0  0  0  0  0  0  0  0  0  0  0  0
   -0.7500   -1.2990    0.0000 C   0  0  0  0  0  0  0  0  0  0  0  0
   -1.5000   -2.5981    0.0000 C   0  0  0  0  0  0  0  0  0  0  0  0
   -3.0000   -2.5981    0.0000 C   0  0  0  0  0  0  0  0  0  0  0  0
   -3.7500   -3.8971    0.0000 C   0  0  0  0  0  0  0  0  0  0  0  0
   -3.0000   -5.1962    0.0000 C   0  0  0  0  0  0  0  0  0  0  0  0
   -1.5000   -5.1962    0.0000 C   0  0  0  0  0  0  0  0  0  0  0  0
   -0.7500   -3.8971    0.0000 C   0  0  0  0  0  0  0  0  0  0  0  0
    3.4031   -3.5714    0.0000 C   0  0  0  0  0  0  0  0  0  0  0  0
    3.4554   -2.0723    0.0000 O   0  0  0  0  0  0  0  0  0  0  0  0
    6.3899   -2.6259    0.0000 C   0  0  0  0  0  0  0  0  0  0  0  0
    7.8318   -2.2125    0.0000 C   0  0  0  0  0  0  0  0  0  0  0  0
    8.9108   -3.2545    0.0000 C   0  0  0  0  0  0  0  0  0  0  0  0
   10.3527   -2.8410    0.0000 O   0  0  0  0  0  0  0  0  0  0  0  0
   10.7156   -1.3856    0.0000 C   0  0  0  0  0  0  0  0  0  0  0  0
   12.1575   -0.9721    0.0000 C   0  0  0  0  0  0  0  0  0  0  0  0
   13.2365   -2.0141    0.0000 O   0  0  0  0  0  0  0  0  0  0  0  0
   12.5203    0.4833    0.0000 C   0  0  0  0  0  0  0  0  0  0  0  0
   13.9622    0.8968    0.0000 N   0  0  0  0  0  0  0  0  0  0  0  0
   15.0412   -0.1452    0.0000 C   0  0  0  0  0  0  0  0  0  0  0  0
   14.6784   -1.6007    0.0000 O   0  0  0  0  0  0  0  0  0  0  0  0
   16.4831    0.2682    0.0000 N   0  0  0  0  0  0  0  0  0  0  0  0
   17.5621   -0.7737    0.0000 C   0  0  0  0  0  0  0  0  0  0  0  0
   19.0040   -0.3603    0.0000 C   0  0  0  0  0  0  0  0  0  0  0  0
   20.0460    0.7187    0.0000 C   0  0  0  0  0  0  0  0  0  0  0  0
   20.4595   -0.7232    0.0000 O   0  0  0  0  0  0  0  0  0  0  0  0
   16.8460    1.7237    0.0000 C   0  0  0  0  0  0  0  0  0  0  0  0
   18.2879    2.1371    0.0000 O   0  0  0  0  0  0  0  0  0  0  0  0
   15.7670    2.7657    0.0000 N   0  0  0  0  0  0  0  0  0  0  0  0
   16.1299    4.2211    0.0000 C   0  0  0  0  0  0  0  0  0  0  0  0
   15.0509    5.2631    0.0000 C   0  0  0  0  0  0  0  0  0  0  0  0
   13.5954    5.6260    0.0000 C   0  0  0  0  0  0  0  0  0  0  0  0
   14.6374    6.7050    0.0000 O   0  0  0  0  0  0  0  0  0  0  0  0
   14.3251    2.3522    0.0000 C   0  0  0  0  0  0  0  0  0  0  0  0
   13.2461    3.3942    0.0000 O   0  0  0  0  0  0  0  0  0  0  0  0
  1  2  1  0
  2  3  2  0
  2  4  1  0
  4  5  2  0
  5  6  1  0
  6  7  1  0
  7  8  1  0
  8  9  2  0
  8 10  1  0
 10 11  1  0
 11 12  1  0
 12 13  2  0
 12 14  1  0
 14 15  1  0
 15 16  2  0
 16 17  1  0
 17 18  2  0
 18 19  1  0
 19 20  2  0
 20 21  1  0
 21 22  2  0
 22 23  1  0
 23 24  2  0
 24 25  1  0
 25 26  2  0
 11 27  1  0
 27 28  2  0
  6 29  2  0
 29 30  1  0
 30 31  2  0
 31 32  1  0
 32 33  1  0
 33 34  1  0
 34 35  1  0
 34 36  1  0
 36 37  1  0
 37 38  1  0
 38 39  2  0
 38 40  1  0
 40 41  1  0
 41 42  1  0
 42 43  1  0
 43 44  1  0
 40 45  1  0
 45 46  2  0
 45 47  1  0
 47 48  1  0
 48 49  1  0
 49 50  1  0
 50 51  1  0
 47 52  1  0
 52 53  2  0
 31  4  1  0
 52 37  1  0
 27  7  1  0
 44 42  1  0
 51 49  1  0
 26 12  1  0
 20 15  1  0
 26 21  1  0
M  END
>  <Candidate_ID>  (90) 
CAND_R2_090

>  <Candidate_Name>  (90) 
DOPO-HPM-carboxamide

>  <Parent_Seed_ID>  (90) 
TRAIN_007

>  <Parent_Name>  (90) 
DOPO-HPM

>  <Transformation_Code>  (90) 
carboxamide

>  <Design_Family>  (90) 
P-N

>  <Preparation_Type>  (90) 
Additive

>  <Synthesis_Level>  (90) 
B

>  <Parent_Tanimoto_r3>  (90) 
0.711864406779661

>  <Max_Train_Tanimoto_r3>  (90) 
0.711864406779661

>  <Risk_Flags>  (90) 
none

$$$$
CAND_R2_091 | DOPO-HPM-boronic-acid
     RDKit          2D

 53 60  0  0  0  0  0  0  0  0999 V2000
    6.0270   -4.0814    0.0000 O   0  0  0  0  0  0  0  0  0  0  0  0
    4.5851   -4.4948    0.0000 C   0  0  0  0  0  0  0  0  0  0  0  0
    3.4031   -3.5714    0.0000 C   0  0  0  0  0  0  0  0  0  0  0  0
    2.1595   -4.4101    0.0000 C   0  0  0  0  0  0  0  0  0  0  0  0
    0.7500   -3.8971    0.0000 P   0  0  0  0  0  0  0  0  0  0  0  0
    0.4895   -5.3743    0.0000 O   0  0  0  0  0  0  0  0  0  0  0  0
    1.5000   -2.5981    0.0000 O   0  0  0  0  0  0  0  0  0  0  0  0
    0.7500   -1.2990    0.0000 C   0  0  0  0  0  0  0  0  0  0  0  0
    1.5000    0.0000    0.0000 C   0  0  0  0  0  0  0  0  0  0  0  0
    0.7500    1.2990    0.0000 C   0  0  0  0  0  0  0  0  0  0  0  0
   -0.7500    1.2990    0.0000 C   0  0  0  0  0  0  0  0  0  0  0  0
   -1.5000    0.0000    0.0000 C   0  0  0  0  0  0  0  0  0  0  0  0
   -0.7500   -1.2990    0.0000 C   0  0  0  0  0  0  0  0  0  0  0  0
   -1.5000   -2.5981    0.0000 C   0  0  0  0  0  0  0  0  0  0  0  0
   -3.0000   -2.5981    0.0000 C   0  0  0  0  0  0  0  0  0  0  0  0
   -3.7500   -3.8971    0.0000 C   0  0  0  0  0  0  0  0  0  0  0  0
   -3.0000   -5.1962    0.0000 C   0  0  0  0  0  0  0  0  0  0  0  0
   -1.5000   -5.1962    0.0000 C   0  0  0  0  0  0  0  0  0  0  0  0
   -0.7500   -3.8971    0.0000 C   0  0  0  0  0  0  0  0  0  0  0  0
    2.5730   -5.8520    0.0000 C   0  0  0  0  0  0  0  0  0  0  0  0
    1.6495   -7.0341    0.0000 O   0  0  0  0  0  0  0  0  0  0  0  0
    4.0721   -5.9044    0.0000 N   0  0  0  0  0  0  0  0  0  0  0  0
    4.9109   -7.1479    0.0000 C   0  0  0  0  0  0  0  0  0  0  0  0
    4.2533   -8.4961    0.0000 C   0  0  0  0  0  0  0  0  0  0  0  0
    5.0921   -9.7397    0.0000 C   0  0  0  0  0  0  0  0  0  0  0  0
    6.5884   -9.6351    0.0000 C   0  0  0  0  0  0  0  0  0  0  0  0
    7.4272  -10.8786    0.0000 O   0  0  0  0  0  0  0  0  0  0  0  0
    6.7697  -12.2268    0.0000 C   0  0  0  0  0  0  0  0  0  0  0  0
    7.6085  -13.4704    0.0000 C   0  0  0  0  0  0  0  0  0  0  0  0
    9.1048  -13.3657    0.0000 O   0  0  0  0  0  0  0  0  0  0  0  0
    6.9509  -14.8186    0.0000 C   0  0  0  0  0  0  0  0  0  0  0  0
    7.7897  -16.0621    0.0000 N   0  0  0  0  0  0  0  0  0  0  0  0
    7.1321  -17.4103    0.0000 C   0  0  0  0  0  0  0  0  0  0  0  0
    5.6358  -17.5149    0.0000 O   0  0  0  0  0  0  0  0  0  0  0  0
    7.9709  -18.6539    0.0000 N   0  0  0  0  0  0  0  0  0  0  0  0
    7.3134  -20.0020    0.0000 C   0  0  0  0  0  0  0  0  0  0  0  0
    8.1522  -21.2456    0.0000 C   0  0  0  0  0  0  0  0  0  0  0  0
    9.5004  -21.9032    0.0000 C   0  0  0  0  0  0  0  0  0  0  0  0
    8.2568  -22.7419    0.0000 O   0  0  0  0  0  0  0  0  0  0  0  0
    9.4673  -18.5492    0.0000 C   0  0  0  0  0  0  0  0  0  0  0  0
   10.3061  -19.7928    0.0000 O   0  0  0  0  0  0  0  0  0  0  0  0
   10.1248  -17.2010    0.0000 N   0  0  0  0  0  0  0  0  0  0  0  0
   11.6212  -17.0964    0.0000 C   0  0  0  0  0  0  0  0  0  0  0  0
   12.2787  -15.7482    0.0000 C   0  0  0  0  0  0  0  0  0  0  0  0
   12.1741  -14.2519    0.0000 C   0  0  0  0  0  0  0  0  0  0  0  0
   13.5223  -14.9094    0.0000 O   0  0  0  0  0  0  0  0  0  0  0  0
    9.2860  -15.9575    0.0000 C   0  0  0  0  0  0  0  0  0  0  0  0
    9.9436  -14.6093    0.0000 O   0  0  0  0  0  0  0  0  0  0  0  0
    7.2460   -8.2869    0.0000 C   0  0  0  0  0  0  0  0  0  0  0  0
    8.7424   -8.1822    0.0000 B   0  0  0  0  0  0  0  0  0  0  0  0
    9.3999   -6.8340    0.0000 O   0  0  0  0  0  0  0  0  0  0  0  0
    9.5811   -9.4258    0.0000 O   0  0  0  0  0  0  0  0  0  0  0  0
    6.4072   -7.0433    0.0000 C   0  0  0  0  0  0  0  0  0  0  0  0
  1  2  2  0
  2  3  1  0
  3  4  1  0
  4  5  1  0
  5  6  2  0
  5  7  1  0
  7  8  1  0
  8  9  2  0
  9 10  1  0
 10 11  2  0
 11 12  1  0
 12 13  2  0
 13 14  1  0
 14 15  2  0
 15 16  1  0
 16 17  2  0
 17 18  1  0
 18 19  2  0
  4 20  1  0
 20 21  2  0
 20 22  1  0
 22 23  1  0
 23 24  2  0
 24 25  1  0
 25 26  2  0
 26 27  1  0
 27 28  1  0
 28 29  1  0
 29 30  1  0
 29 31  1  0
 31 32  1  0
 32 33  1  0
 33 34  2  0
 33 35  1  0
 35 36  1  0
 36 37  1  0
 37 38  1  0
 38 39  1  0
 35 40  1  0
 40 41  2  0
 40 42  1  0
 42 43  1  0
 43 44  1  0
 44 45  1  0
 45 46  1  0
 42 47  1  0
 47 48  2  0
 26 49  1  0
 49 50  1  0
 50 51  1  0
 50 52  1  0
 49 53  2  0
 22  2  1  0
 53 23  1  0
 19  5  1  0
 47 32  1  0
 13  8  1  0
 19 14  1  0
 39 37  1  0
 46 44  1  0
M  END
>  <Candidate_ID>  (91) 
CAND_R2_091

>  <Candidate_Name>  (91) 
DOPO-HPM-boronic-acid

>  <Parent_Seed_ID>  (91) 
TRAIN_007

>  <Parent_Name>  (91) 
DOPO-HPM

>  <Transformation_Code>  (91) 
boronic_acid

>  <Design_Family>  (91) 
P-N-B

>  <Preparation_Type>  (91) 
Additive

>  <Synthesis_Level>  (91) 
B

>  <Parent_Tanimoto_r3>  (91) 
0.7241379310344828

>  <Max_Train_Tanimoto_r3>  (91) 
0.7241379310344828

>  <Risk_Flags>  (91) 
none

$$$$
CAND_R2_092 | DOPO-HPM-pinacol-boronate
     RDKit          2D

 59 67  0  0  0  0  0  0  0  0999 V2000
    6.6772    2.3216    0.0000 C   0  0  0  0  0  0  0  0  0  0  0  0
    8.0254    1.6641    0.0000 C   0  0  0  0  0  0  0  0  0  0  0  0
    8.5384    3.0736    0.0000 C   0  0  0  0  0  0  0  0  0  0  0  0
    7.2305    0.3920    0.0000 O   0  0  0  0  0  0  0  0  0  0  0  0
    8.1947   -0.7570    0.0000 B   0  0  0  0  0  0  0  0  0  0  0  0
    7.8318   -2.2125    0.0000 C   0  0  0  0  0  0  0  0  0  0  0  0
    6.3899   -2.6259    0.0000 C   0  0  0  0  0  0  0  0  0  0  0  0
    6.0270   -4.0814    0.0000 C   0  0  0  0  0  0  0  0  0  0  0  0
    4.5851   -4.4948    0.0000 N   0  0  0  0  0  0  0  0  0  0  0  0
    4.0721   -5.9044    0.0000 C   0  0  0  0  0  0  0  0  0  0  0  0
    4.9109   -7.1479    0.0000 O   0  0  0  0  0  0  0  0  0  0  0  0
    2.5730   -5.8520    0.0000 C   0  0  0  0  0  0  0  0  0  0  0  0
    2.1595   -4.4101    0.0000 C   0  0  0  0  0  0  0  0  0  0  0  0
    0.7500   -3.8971    0.0000 P   0  0  0  0  0  0  0  0  0  0  0  0
    0.4895   -5.3743    0.0000 O   0  0  0  0  0  0  0  0  0  0  0  0
    1.5000   -2.5981    0.0000 O   0  0  0  0  0  0  0  0  0  0  0  0
    0.7500   -1.2990    0.0000 C   0  0  0  0  0  0  0  0  0  0  0  0
    1.5000    0.0000    0.0000 C   0  0  0  0  0  0  0  0  0  0  0  0
    0.7500    1.2990    0.0000 C   0  0  0  0  0  0  0  0  0  0  0  0
   -0.7500    1.2990    0.0000 C   0  0  0  0  0  0  0  0  0  0  0  0
   -1.5000    0.0000    0.0000 C   0  0  0  0  0  0  0  0  0  0  0  0
   -0.7500   -1.2990    0.0000 C   0  0  0  0  0  0  0  0  0  0  0  0
   -1.5000   -2.5981    0.0000 C   0  0  0  0  0  0  0  0  0  0  0  0
   -3.0000   -2.5981    0.0000 C   0  0  0  0  0  0  0  0  0  0  0  0
   -3.7500   -3.8971    0.0000 C   0  0  0  0  0  0  0  0  0  0  0  0
   -3.0000   -5.1962    0.0000 C   0  0  0  0  0  0  0  0  0  0  0  0
   -1.5000   -5.1962    0.0000 C   0  0  0  0  0  0  0  0  0  0  0  0
   -0.7500   -3.8971    0.0000 C   0  0  0  0  0  0  0  0  0  0  0  0
    3.4031   -3.5714    0.0000 C   0  0  0  0  0  0  0  0  0  0  0  0
    3.4554   -2.0723    0.0000 O   0  0  0  0  0  0  0  0  0  0  0  0
    7.1060   -5.1234    0.0000 C   0  0  0  0  0  0  0  0  0  0  0  0
    8.5479   -4.7099    0.0000 C   0  0  0  0  0  0  0  0  0  0  0  0
    8.9108   -3.2545    0.0000 C   0  0  0  0  0  0  0  0  0  0  0  0
   10.3527   -2.8410    0.0000 O   0  0  0  0  0  0  0  0  0  0  0  0
   11.4317   -3.8830    0.0000 C   0  0  0  0  0  0  0  0  0  0  0  0
   12.8736   -3.4696    0.0000 C   0  0  0  0  0  0  0  0  0  0  0  0
   13.2365   -2.0141    0.0000 O   0  0  0  0  0  0  0  0  0  0  0  0
   13.9526   -4.5115    0.0000 C   0  0  0  0  0  0  0  0  0  0  0  0
   15.3945   -4.0981    0.0000 N   0  0  0  0  0  0  0  0  0  0  0  0
   16.4735   -5.1401    0.0000 C   0  0  0  0  0  0  0  0  0  0  0  0
   16.1106   -6.5955    0.0000 O   0  0  0  0  0  0  0  0  0  0  0  0
   17.9154   -4.7266    0.0000 N   0  0  0  0  0  0  0  0  0  0  0  0
   18.9944   -5.7686    0.0000 C   0  0  0  0  0  0  0  0  0  0  0  0
   20.4363   -5.3551    0.0000 C   0  0  0  0  0  0  0  0  0  0  0  0
   21.4783   -4.2761    0.0000 C   0  0  0  0  0  0  0  0  0  0  0  0
   21.8917   -5.7180    0.0000 O   0  0  0  0  0  0  0  0  0  0  0  0
   18.2783   -3.2712    0.0000 C   0  0  0  0  0  0  0  0  0  0  0  0
   19.7202   -2.8577    0.0000 O   0  0  0  0  0  0  0  0  0  0  0  0
   17.1993   -2.2292    0.0000 N   0  0  0  0  0  0  0  0  0  0  0  0
   17.5621   -0.7737    0.0000 C   0  0  0  0  0  0  0  0  0  0  0  0
   16.4831    0.2682    0.0000 C   0  0  0  0  0  0  0  0  0  0  0  0
   15.0277    0.6311    0.0000 C   0  0  0  0  0  0  0  0  0  0  0  0
   16.0697    1.7101    0.0000 O   0  0  0  0  0  0  0  0  0  0  0  0
   15.7574   -2.6426    0.0000 C   0  0  0  0  0  0  0  0  0  0  0  0
   14.6784   -1.6007    0.0000 O   0  0  0  0  0  0  0  0  0  0  0  0
    9.5854   -0.1951    0.0000 O   0  0  0  0  0  0  0  0  0  0  0  0
    9.4808    1.3012    0.0000 C   0  0  0  0  0  0  0  0  0  0  0  0
    9.6896    2.7866    0.0000 C   0  0  0  0  0  0  0  0  0  0  0  0
   10.9799    1.2489    0.0000 C   0  0  0  0  0  0  0  0  0  0  0  0
  1  2  1  0
  2  3  1  0
  2  4  1  0
  4  5  1  0
  5  6  1  0
  6  7  2  0
  7  8  1  0
  8  9  1  0
  9 10  1  0
 10 11  2  0
 10 12  1  0
 12 13  1  0
 13 14  1  0
 14 15  2  0
 14 16  1  0
 16 17  1  0
 17 18  2  0
 18 19  1  0
 19 20  2  0
 20 21  1  0
 21 22  2  0
 22 23  1  0
 23 24  2  0
 24 25  1  0
 25 26  2  0
 26 27  1  0
 27 28  2  0
 13 29  1  0
 29 30  2  0
  8 31  2  0
 31 32  1  0
 32 33  2  0
 33 34  1  0
 34 35  1  0
 35 36  1  0
 36 37  1  0
 36 38  1  0
 38 39  1  0
 39 40  1  0
 40 41  2  0
 40 42  1  0
 42 43  1  0
 43 44  1  0
 44 45  1  0
 45 46  1  0
 42 47  1  0
 47 48  2  0
 47 49  1  0
 49 50  1  0
 50 51  1  0
 51 52  1  0
 52 53  1  0
 49 54  1  0
 54 55  2  0
  5 56  1  0
 56 57  1  0
 57 58  1  0
 57 59  1  0
 57  2  1  0
 33  6  1  0
 54 39  1  0
 29  9  1  0
 46 44  1  0
 53 51  1  0
 28 14  1  0
 22 17  1  0
 28 23  1  0
M  END
>  <Candidate_ID>  (92) 
CAND_R2_092

>  <Candidate_Name>  (92) 
DOPO-HPM-pinacol-boronate

>  <Parent_Seed_ID>  (92) 
TRAIN_007

>  <Parent_Name>  (92) 
DOPO-HPM

>  <Transformation_Code>  (92) 
pinacol_boronate

>  <Design_Family>  (92) 
P-N-B

>  <Preparation_Type>  (92) 
Additive

>  <Synthesis_Level>  (92) 
B

>  <Parent_Tanimoto_r3>  (92) 
0.6614173228346457

>  <Max_Train_Tanimoto_r3>  (92) 
0.6614173228346457

>  <Risk_Flags>  (92) 
candidate may be outside strict in-domain threshold

$$$$
CAND_R2_093 | DOPO-HPM-trimethoxysilyl
     RDKit          2D

 57 64  0  0  0  0  0  0  0  0999 V2000
   12.1478   -6.3804    0.0000 C   0  0  0  0  0  0  0  0  0  0  0  0
   10.7059   -6.7939    0.0000 O   0  0  0  0  0  0  0  0  0  0  0  0
    9.6269   -5.7519    0.0000 Si  0  0  0  0  0  4  0  0  0  0  0  0
    8.5849   -6.8309    0.0000 O   0  0  0  0  0  0  0  0  0  0  0  0
    8.9984   -8.2728    0.0000 C   0  0  0  0  0  0  0  0  0  0  0  0
   10.6689   -4.6729    0.0000 O   0  0  0  0  0  0  0  0  0  0  0  0
   12.1243   -5.0358    0.0000 C   0  0  0  0  0  0  0  0  0  0  0  0
    8.5479   -4.7099    0.0000 C   0  0  0  0  0  0  0  0  0  0  0  0
    7.1060   -5.1234    0.0000 C   0  0  0  0  0  0  0  0  0  0  0  0
    6.0270   -4.0814    0.0000 C   0  0  0  0  0  0  0  0  0  0  0  0
    4.5851   -4.4948    0.0000 N   0  0  0  0  0  0  0  0  0  0  0  0
    4.0721   -5.9044    0.0000 C   0  0  0  0  0  0  0  0  0  0  0  0
    4.9109   -7.1479    0.0000 O   0  0  0  0  0  0  0  0  0  0  0  0
    2.5730   -5.8520    0.0000 C   0  0  0  0  0  0  0  0  0  0  0  0
    2.1595   -4.4101    0.0000 C   0  0  0  0  0  0  0  0  0  0  0  0
    0.7500   -3.8971    0.0000 P   0  0  0  0  0  0  0  0  0  0  0  0
    0.4895   -5.3743    0.0000 O   0  0  0  0  0  0  0  0  0  0  0  0
    1.5000   -2.5981    0.0000 O   0  0  0  0  0  0  0  0  0  0  0  0
    0.7500   -1.2990    0.0000 C   0  0  0  0  0  0  0  0  0  0  0  0
    1.5000    0.0000    0.0000 C   0  0  0  0  0  0  0  0  0  0  0  0
    0.7500    1.2990    0.0000 C   0  0  0  0  0  0  0  0  0  0  0  0
   -0.7500    1.2990    0.0000 C   0  0  0  0  0  0  0  0  0  0  0  0
   -1.5000    0.0000    0.0000 C   0  0  0  0  0  0  0  0  0  0  0  0
   -0.7500   -1.2990    0.0000 C   0  0  0  0  0  0  0  0  0  0  0  0
   -1.5000   -2.5981    0.0000 C   0  0  0  0  0  0  0  0  0  0  0  0
   -3.0000   -2.5981    0.0000 C   0  0  0  0  0  0  0  0  0  0  0  0
   -3.7500   -3.8971    0.0000 C   0  0  0  0  0  0  0  0  0  0  0  0
   -3.0000   -5.1962    0.0000 C   0  0  0  0  0  0  0  0  0  0  0  0
   -1.5000   -5.1962    0.0000 C   0  0  0  0  0  0  0  0  0  0  0  0
   -0.7500   -3.8971    0.0000 C   0  0  0  0  0  0  0  0  0  0  0  0
    3.4031   -3.5714    0.0000 C   0  0  0  0  0  0  0  0  0  0  0  0
    3.4554   -2.0723    0.0000 O   0  0  0  0  0  0  0  0  0  0  0  0
    6.3899   -2.6259    0.0000 C   0  0  0  0  0  0  0  0  0  0  0  0
    7.8318   -2.2125    0.0000 C   0  0  0  0  0  0  0  0  0  0  0  0
    8.9108   -3.2545    0.0000 C   0  0  0  0  0  0  0  0  0  0  0  0
   10.3527   -2.8410    0.0000 O   0  0  0  0  0  0  0  0  0  0  0  0
   10.7156   -1.3856    0.0000 C   0  0  0  0  0  0  0  0  0  0  0  0
   12.1575   -0.9721    0.0000 C   0  0  0  0  0  0  0  0  0  0  0  0
   13.2365   -2.0141    0.0000 O   0  0  0  0  0  0  0  0  0  0  0  0
   12.5203    0.4833    0.0000 C   0  0  0  0  0  0  0  0  0  0  0  0
   13.9622    0.8968    0.0000 N   0  0  0  0  0  0  0  0  0  0  0  0
   15.0412   -0.1452    0.0000 C   0  0  0  0  0  0  0  0  0  0  0  0
   14.6784   -1.6007    0.0000 O   0  0  0  0  0  0  0  0  0  0  0  0
   16.4831    0.2682    0.0000 N   0  0  0  0  0  0  0  0  0  0  0  0
   17.5621   -0.7737    0.0000 C   0  0  0  0  0  0  0  0  0  0  0  0
   19.0040   -0.3603    0.0000 C   0  0  0  0  0  0  0  0  0  0  0  0
   20.0460    0.7187    0.0000 C   0  0  0  0  0  0  0  0  0  0  0  0
   20.4595   -0.7232    0.0000 O   0  0  0  0  0  0  0  0  0  0  0  0
   16.8460    1.7237    0.0000 C   0  0  0  0  0  0  0  0  0  0  0  0
   18.2879    2.1371    0.0000 O   0  0  0  0  0  0  0  0  0  0  0  0
   15.7670    2.7657    0.0000 N   0  0  0  0  0  0  0  0  0  0  0  0
   16.1299    4.2211    0.0000 C   0  0  0  0  0  0  0  0  0  0  0  0
   15.0509    5.2631    0.0000 C   0  0  0  0  0  0  0  0  0  0  0  0
   13.5954    5.6260    0.0000 C   0  0  0  0  0  0  0  0  0  0  0  0
   14.6374    6.7050    0.0000 O   0  0  0  0  0  0  0  0  0  0  0  0
   14.3251    2.3522    0.0000 C   0  0  0  0  0  0  0  0  0  0  0  0
   13.2461    3.3942    0.0000 O   0  0  0  0  0  0  0  0  0  0  0  0
  1  2  1  0
  2  3  1  0
  3  4  1  0
  4  5  1  0
  3  6  1  0
  6  7  1  0
  3  8  1  0
  8  9  2  0
  9 10  1  0
 10 11  1  0
 11 12  1  0
 12 13  2  0
 12 14  1  0
 14 15  1  0
 15 16  1  0
 16 17  2  0
 16 18  1  0
 18 19  1  0
 19 20  2  0
 20 21  1  0
 21 22  2  0
 22 23  1  0
 23 24  2  0
 24 25  1  0
 25 26  2  0
 26 27  1  0
 27 28  2  0
 28 29  1  0
 29 30  2  0
 15 31  1  0
 31 32  2  0
 10 33  2  0
 33 34  1  0
 34 35  2  0
 35 36  1  0
 36 37  1  0
 37 38  1  0
 38 39  1  0
 38 40  1  0
 40 41  1  0
 41 42  1  0
 42 43  2  0
 42 44  1  0
 44 45  1  0
 45 46  1  0
 46 47  1  0
 47 48  1  0
 44 49  1  0
 49 50  2  0
 49 51  1  0
 51 52  1  0
 52 53  1  0
 53 54  1  0
 54 55  1  0
 51 56  1  0
 56 57  2  0
 35  8  1  0
 56 41  1  0
 31 11  1  0
 48 46  1  0
 55 53  1  0
 30 16  1  0
 24 19  1  0
 30 25  1  0
M  END
>  <Candidate_ID>  (93) 
CAND_R2_093

>  <Candidate_Name>  (93) 
DOPO-HPM-trimethoxysilyl

>  <Parent_Seed_ID>  (93) 
TRAIN_007

>  <Parent_Name>  (93) 
DOPO-HPM

>  <Transformation_Code>  (93) 
trimethoxysilyl

>  <Design_Family>  (93) 
P-N-Si

>  <Preparation_Type>  (93) 
Additive + Secondary Crosslinking

>  <Synthesis_Level>  (93) 
B

>  <Parent_Tanimoto_r3>  (93) 
0.7

>  <Max_Train_Tanimoto_r3>  (93) 
0.7

>  <Risk_Flags>  (93) 
none

$$$$
CAND_R2_094 | DOPO-HPM-triethoxysilyl
     RDKit          2D

 60 67  0  0  0  0  0  0  0  0999 V2000
   13.2268   -7.4224    0.0000 C   0  0  0  0  0  0  0  0  0  0  0  0
   12.1478   -6.3804    0.0000 C   0  0  0  0  0  0  0  0  0  0  0  0
   10.7059   -6.7939    0.0000 O   0  0  0  0  0  0  0  0  0  0  0  0
    9.6269   -5.7519    0.0000 Si  0  0  0  0  0  4  0  0  0  0  0  0
    8.5849   -6.8309    0.0000 O   0  0  0  0  0  0  0  0  0  0  0  0
    8.9984   -8.2728    0.0000 C   0  0  0  0  0  0  0  0  0  0  0  0
    7.9564   -9.3518    0.0000 C   0  0  0  0  0  0  0  0  0  0  0  0
   10.6689   -4.6729    0.0000 O   0  0  0  0  0  0  0  0  0  0  0  0
   12.1243   -5.0358    0.0000 C   0  0  0  0  0  0  0  0  0  0  0  0
   13.1663   -3.9568    0.0000 C   0  0  0  0  0  0  0  0  0  0  0  0
    8.5479   -4.7099    0.0000 C   0  0  0  0  0  0  0  0  0  0  0  0
    7.1060   -5.1234    0.0000 C   0  0  0  0  0  0  0  0  0  0  0  0
    6.0270   -4.0814    0.0000 C   0  0  0  0  0  0  0  0  0  0  0  0
    4.5851   -4.4948    0.0000 N   0  0  0  0  0  0  0  0  0  0  0  0
    4.0721   -5.9044    0.0000 C   0  0  0  0  0  0  0  0  0  0  0  0
    4.9109   -7.1479    0.0000 O   0  0  0  0  0  0  0  0  0  0  0  0
    2.5730   -5.8520    0.0000 C   0  0  0  0  0  0  0  0  0  0  0  0
    2.1595   -4.4101    0.0000 C   0  0  0  0  0  0  0  0  0  0  0  0
    0.7500   -3.8971    0.0000 P   0  0  0  0  0  0  0  0  0  0  0  0
    0.4895   -5.3743    0.0000 O   0  0  0  0  0  0  0  0  0  0  0  0
    1.5000   -2.5981    0.0000 O   0  0  0  0  0  0  0  0  0  0  0  0
    0.7500   -1.2990    0.0000 C   0  0  0  0  0  0  0  0  0  0  0  0
    1.5000    0.0000    0.0000 C   0  0  0  0  0  0  0  0  0  0  0  0
    0.7500    1.2990    0.0000 C   0  0  0  0  0  0  0  0  0  0  0  0
   -0.7500    1.2990    0.0000 C   0  0  0  0  0  0  0  0  0  0  0  0
   -1.5000    0.0000    0.0000 C   0  0  0  0  0  0  0  0  0  0  0  0
   -0.7500   -1.2990    0.0000 C   0  0  0  0  0  0  0  0  0  0  0  0
   -1.5000   -2.5981    0.0000 C   0  0  0  0  0  0  0  0  0  0  0  0
   -3.0000   -2.5981    0.0000 C   0  0  0  0  0  0  0  0  0  0  0  0
   -3.7500   -3.8971    0.0000 C   0  0  0  0  0  0  0  0  0  0  0  0
   -3.0000   -5.1962    0.0000 C   0  0  0  0  0  0  0  0  0  0  0  0
   -1.5000   -5.1962    0.0000 C   0  0  0  0  0  0  0  0  0  0  0  0
   -0.7500   -3.8971    0.0000 C   0  0  0  0  0  0  0  0  0  0  0  0
    3.4031   -3.5714    0.0000 C   0  0  0  0  0  0  0  0  0  0  0  0
    3.4554   -2.0723    0.0000 O   0  0  0  0  0  0  0  0  0  0  0  0
    6.3899   -2.6259    0.0000 C   0  0  0  0  0  0  0  0  0  0  0  0
    7.8318   -2.2125    0.0000 C   0  0  0  0  0  0  0  0  0  0  0  0
    8.9108   -3.2545    0.0000 C   0  0  0  0  0  0  0  0  0  0  0  0
   10.3527   -2.8410    0.0000 O   0  0  0  0  0  0  0  0  0  0  0  0
   10.7156   -1.3856    0.0000 C   0  0  0  0  0  0  0  0  0  0  0  0
   12.1575   -0.9721    0.0000 C   0  0  0  0  0  0  0  0  0  0  0  0
   13.2365   -2.0141    0.0000 O   0  0  0  0  0  0  0  0  0  0  0  0
   12.5203    0.4833    0.0000 C   0  0  0  0  0  0  0  0  0  0  0  0
   13.9622    0.8968    0.0000 N   0  0  0  0  0  0  0  0  0  0  0  0
   15.0412   -0.1452    0.0000 C   0  0  0  0  0  0  0  0  0  0  0  0
   14.6784   -1.6007    0.0000 O   0  0  0  0  0  0  0  0  0  0  0  0
   16.4831    0.2682    0.0000 N   0  0  0  0  0  0  0  0  0  0  0  0
   17.5621   -0.7737    0.0000 C   0  0  0  0  0  0  0  0  0  0  0  0
   19.0040   -0.3603    0.0000 C   0  0  0  0  0  0  0  0  0  0  0  0
   20.0460    0.7187    0.0000 C   0  0  0  0  0  0  0  0  0  0  0  0
   20.4595   -0.7232    0.0000 O   0  0  0  0  0  0  0  0  0  0  0  0
   16.8460    1.7237    0.0000 C   0  0  0  0  0  0  0  0  0  0  0  0
   18.2879    2.1371    0.0000 O   0  0  0  0  0  0  0  0  0  0  0  0
   15.7670    2.7657    0.0000 N   0  0  0  0  0  0  0  0  0  0  0  0
   16.1299    4.2211    0.0000 C   0  0  0  0  0  0  0  0  0  0  0  0
   15.0509    5.2631    0.0000 C   0  0  0  0  0  0  0  0  0  0  0  0
   13.5954    5.6260    0.0000 C   0  0  0  0  0  0  0  0  0  0  0  0
   14.6374    6.7050    0.0000 O   0  0  0  0  0  0  0  0  0  0  0  0
   14.3251    2.3522    0.0000 C   0  0  0  0  0  0  0  0  0  0  0  0
   13.2461    3.3942    0.0000 O   0  0  0  0  0  0  0  0  0  0  0  0
  1  2  1  0
  2  3  1  0
  3  4  1  0
  4  5  1  0
  5  6  1  0
  6  7  1  0
  4  8  1  0
  8  9  1  0
  9 10  1  0
  4 11  1  0
 11 12  2  0
 12 13  1  0
 13 14  1  0
 14 15  1  0
 15 16  2  0
 15 17  1  0
 17 18  1  0
 18 19  1  0
 19 20  2  0
 19 21  1  0
 21 22  1  0
 22 23  2  0
 23 24  1  0
 24 25  2  0
 25 26  1  0
 26 27  2  0
 27 28  1  0
 28 29  2  0
 29 30  1  0
 30 31  2  0
 31 32  1  0
 32 33  2  0
 18 34  1  0
 34 35  2  0
 13 36  2  0
 36 37  1  0
 37 38  2  0
 38 39  1  0
 39 40  1  0
 40 41  1  0
 41 42  1  0
 41 43  1  0
 43 44  1  0
 44 45  1  0
 45 46  2  0
 45 47  1  0
 47 48  1  0
 48 49  1  0
 49 50  1  0
 50 51  1  0
 47 52  1  0
 52 53  2  0
 52 54  1  0
 54 55  1  0
 55 56  1  0
 56 57  1  0
 57 58  1  0
 54 59  1  0
 59 60  2  0
 38 11  1  0
 59 44  1  0
 34 14  1  0
 51 49  1  0
 58 56  1  0
 33 19  1  0
 27 22  1  0
 33 28  1  0
M  END
>  <Candidate_ID>  (94) 
CAND_R2_094

>  <Candidate_Name>  (94) 
DOPO-HPM-triethoxysilyl

>  <Parent_Seed_ID>  (94) 
TRAIN_007

>  <Parent_Name>  (94) 
DOPO-HPM

>  <Transformation_Code>  (94) 
triethoxysilyl

>  <Design_Family>  (94) 
P-N-Si

>  <Preparation_Type>  (94) 
Additive + Secondary Crosslinking

>  <Synthesis_Level>  (94) 
B

>  <Parent_Tanimoto_r3>  (94) 
0.6885245901639344

>  <Max_Train_Tanimoto_r3>  (94) 
0.6885245901639344

>  <Risk_Flags>  (94) 
candidate may be outside strict in-domain threshold

$$$$
CAND_R2_095 | DOPO-HPM-disiloxane
     RDKit          2D

 58 65  0  0  0  0  0  0  0  0999 V2000
   12.5613   -7.8223    0.0000 C   0  0  0  0  0  0  0  0  0  0  0  0
   12.1478   -6.3804    0.0000 Si  0  0  0  0  0  4  0  0  0  0  0  0
   11.7344   -4.9385    0.0000 C   0  0  0  0  0  0  0  0  0  0  0  0
   13.5897   -5.9670    0.0000 C   0  0  0  0  0  0  0  0  0  0  0  0
   10.7059   -6.7939    0.0000 O   0  0  0  0  0  0  0  0  0  0  0  0
    9.6269   -5.7519    0.0000 Si  0  0  0  0  0  4  0  0  0  0  0  0
   10.6689   -4.6729    0.0000 C   0  0  0  0  0  0  0  0  0  0  0  0
    8.5849   -6.8309    0.0000 C   0  0  0  0  0  0  0  0  0  0  0  0
    8.5479   -4.7099    0.0000 C   0  0  0  0  0  0  0  0  0  0  0  0
    7.1060   -5.1234    0.0000 C   0  0  0  0  0  0  0  0  0  0  0  0
    6.0270   -4.0814    0.0000 C   0  0  0  0  0  0  0  0  0  0  0  0
    4.5851   -4.4948    0.0000 N   0  0  0  0  0  0  0  0  0  0  0  0
    4.0721   -5.9044    0.0000 C   0  0  0  0  0  0  0  0  0  0  0  0
    4.9109   -7.1479    0.0000 O   0  0  0  0  0  0  0  0  0  0  0  0
    2.5730   -5.8520    0.0000 C   0  0  0  0  0  0  0  0  0  0  0  0
    2.1595   -4.4101    0.0000 C   0  0  0  0  0  0  0  0  0  0  0  0
    0.7500   -3.8971    0.0000 P   0  0  0  0  0  0  0  0  0  0  0  0
    0.4895   -5.3743    0.0000 O   0  0  0  0  0  0  0  0  0  0  0  0
    1.5000   -2.5981    0.0000 O   0  0  0  0  0  0  0  0  0  0  0  0
    0.7500   -1.2990    0.0000 C   0  0  0  0  0  0  0  0  0  0  0  0
    1.5000    0.0000    0.0000 C   0  0  0  0  0  0  0  0  0  0  0  0
    0.7500    1.2990    0.0000 C   0  0  0  0  0  0  0  0  0  0  0  0
   -0.7500    1.2990    0.0000 C   0  0  0  0  0  0  0  0  0  0  0  0
   -1.5000    0.0000    0.0000 C   0  0  0  0  0  0  0  0  0  0  0  0
   -0.7500   -1.2990    0.0000 C   0  0  0  0  0  0  0  0  0  0  0  0
   -1.5000   -2.5981    0.0000 C   0  0  0  0  0  0  0  0  0  0  0  0
   -3.0000   -2.5981    0.0000 C   0  0  0  0  0  0  0  0  0  0  0  0
   -3.7500   -3.8971    0.0000 C   0  0  0  0  0  0  0  0  0  0  0  0
   -3.0000   -5.1962    0.0000 C   0  0  0  0  0  0  0  0  0  0  0  0
   -1.5000   -5.1962    0.0000 C   0  0  0  0  0  0  0  0  0  0  0  0
   -0.7500   -3.8971    0.0000 C   0  0  0  0  0  0  0  0  0  0  0  0
    3.4031   -3.5714    0.0000 C   0  0  0  0  0  0  0  0  0  0  0  0
    3.4554   -2.0723    0.0000 O   0  0  0  0  0  0  0  0  0  0  0  0
    6.3899   -2.6259    0.0000 C   0  0  0  0  0  0  0  0  0  0  0  0
    7.8318   -2.2125    0.0000 C   0  0  0  0  0  0  0  0  0  0  0  0
    8.9108   -3.2545    0.0000 C   0  0  0  0  0  0  0  0  0  0  0  0
   10.3527   -2.8410    0.0000 O   0  0  0  0  0  0  0  0  0  0  0  0
   10.7156   -1.3856    0.0000 C   0  0  0  0  0  0  0  0  0  0  0  0
   12.1575   -0.9721    0.0000 C   0  0  0  0  0  0  0  0  0  0  0  0
   13.2365   -2.0141    0.0000 O   0  0  0  0  0  0  0  0  0  0  0  0
   12.5203    0.4833    0.0000 C   0  0  0  0  0  0  0  0  0  0  0  0
   13.9622    0.8968    0.0000 N   0  0  0  0  0  0  0  0  0  0  0  0
   15.0412   -0.1452    0.0000 C   0  0  0  0  0  0  0  0  0  0  0  0
   14.6784   -1.6007    0.0000 O   0  0  0  0  0  0  0  0  0  0  0  0
   16.4831    0.2682    0.0000 N   0  0  0  0  0  0  0  0  0  0  0  0
   17.5621   -0.7737    0.0000 C   0  0  0  0  0  0  0  0  0  0  0  0
   19.0040   -0.3603    0.0000 C   0  0  0  0  0  0  0  0  0  0  0  0
   20.0460    0.7187    0.0000 C   0  0  0  0  0  0  0  0  0  0  0  0
   20.4595   -0.7232    0.0000 O   0  0  0  0  0  0  0  0  0  0  0  0
   16.8460    1.7237    0.0000 C   0  0  0  0  0  0  0  0  0  0  0  0
   18.2879    2.1371    0.0000 O   0  0  0  0  0  0  0  0  0  0  0  0
   15.7670    2.7657    0.0000 N   0  0  0  0  0  0  0  0  0  0  0  0
   16.1299    4.2211    0.0000 C   0  0  0  0  0  0  0  0  0  0  0  0
   15.0509    5.2631    0.0000 C   0  0  0  0  0  0  0  0  0  0  0  0
   13.5954    5.6260    0.0000 C   0  0  0  0  0  0  0  0  0  0  0  0
   14.6374    6.7050    0.0000 O   0  0  0  0  0  0  0  0  0  0  0  0
   14.3251    2.3522    0.0000 C   0  0  0  0  0  0  0  0  0  0  0  0
   13.2461    3.3942    0.0000 O   0  0  0  0  0  0  0  0  0  0  0  0
  1  2  1  0
  2  3  1  0
  2  4  1  0
  2  5  1  0
  5  6  1  0
  6  7  1  0
  6  8  1  0
  6  9  1  0
  9 10  2  0
 10 11  1  0
 11 12  1  0
 12 13  1  0
 13 14  2  0
 13 15  1  0
 15 16  1  0
 16 17  1  0
 17 18  2  0
 17 19  1  0
 19 20  1  0
 20 21  2  0
 21 22  1  0
 22 23  2  0
 23 24  1  0
 24 25  2  0
 25 26  1  0
 26 27  2  0
 27 28  1  0
 28 29  2  0
 29 30  1  0
 30 31  2  0
 16 32  1  0
 32 33  2  0
 11 34  2  0
 34 35  1  0
 35 36  2  0
 36 37  1  0
 37 38  1  0
 38 39  1  0
 39 40  1  0
 39 41  1  0
 41 42  1  0
 42 43  1  0
 43 44  2  0
 43 45  1  0
 45 46  1  0
 46 47  1  0
 47 48  1  0
 48 49  1  0
 45 50  1  0
 50 51  2  0
 50 52  1  0
 52 53  1  0
 53 54  1  0
 54 55  1  0
 55 56  1  0
 52 57  1  0
 57 58  2  0
 36  9  1  0
 57 42  1  0
 32 12  1  0
 49 47  1  0
 56 54  1  0
 31 17  1  0
 25 20  1  0
 31 26  1  0
M  END
>  <Candidate_ID>  (95) 
CAND_R2_095

>  <Candidate_Name>  (95) 
DOPO-HPM-disiloxane

>  <Parent_Seed_ID>  (95) 
TRAIN_007

>  <Parent_Name>  (95) 
DOPO-HPM

>  <Transformation_Code>  (95) 
disiloxane

>  <Design_Family>  (95) 
P-N-Si

>  <Preparation_Type>  (95) 
Additive

>  <Synthesis_Level>  (95) 
B

>  <Parent_Tanimoto_r3>  (95) 
0.6885245901639344

>  <Max_Train_Tanimoto_r3>  (95) 
0.6885245901639344

>  <Risk_Flags>  (95) 
candidate may be outside strict in-domain threshold

$$$$
CAND_R2_096 | DOPO-HPM-glycidyloxy
     RDKit          2D

 55 63  0  0  0  0  0  0  0  0999 V2000
    6.0270   -4.0814    0.0000 O   0  0  0  0  0  0  0  0  0  0  0  0
    4.5851   -4.4948    0.0000 C   0  0  0  0  0  0  0  0  0  0  0  0
    3.4031   -3.5714    0.0000 C   0  0  0  0  0  0  0  0  0  0  0  0
    2.1595   -4.4101    0.0000 C   0  0  0  0  0  0  0  0  0  0  0  0
    0.7500   -3.8971    0.0000 P   0  0  0  0  0  0  0  0  0  0  0  0
    0.4895   -5.3743    0.0000 O   0  0  0  0  0  0  0  0  0  0  0  0
    1.5000   -2.5981    0.0000 O   0  0  0  0  0  0  0  0  0  0  0  0
    0.7500   -1.2990    0.0000 C   0  0  0  0  0  0  0  0  0  0  0  0
    1.5000    0.0000    0.0000 C   0  0  0  0  0  0  0  0  0  0  0  0
    0.7500    1.2990    0.0000 C   0  0  0  0  0  0  0  0  0  0  0  0
   -0.7500    1.2990    0.0000 C   0  0  0  0  0  0  0  0  0  0  0  0
   -1.5000    0.0000    0.0000 C   0  0  0  0  0  0  0  0  0  0  0  0
   -0.7500   -1.2990    0.0000 C   0  0  0  0  0  0  0  0  0  0  0  0
   -1.5000   -2.5981    0.0000 C   0  0  0  0  0  0  0  0  0  0  0  0
   -3.0000   -2.5981    0.0000 C   0  0  0  0  0  0  0  0  0  0  0  0
   -3.7500   -3.8971    0.0000 C   0  0  0  0  0  0  0  0  0  0  0  0
   -3.0000   -5.1962    0.0000 C   0  0  0  0  0  0  0  0  0  0  0  0
   -1.5000   -5.1962    0.0000 C   0  0  0  0  0  0  0  0  0  0  0  0
   -0.7500   -3.8971    0.0000 C   0  0  0  0  0  0  0  0  0  0  0  0
    2.5730   -5.8520    0.0000 C   0  0  0  0  0  0  0  0  0  0  0  0
    1.6495   -7.0341    0.0000 O   0  0  0  0  0  0  0  0  0  0  0  0
    4.0721   -5.9044    0.0000 N   0  0  0  0  0  0  0  0  0  0  0  0
    4.9109   -7.1479    0.0000 C   0  0  0  0  0  0  0  0  0  0  0  0
    4.2533   -8.4961    0.0000 C   0  0  0  0  0  0  0  0  0  0  0  0
    5.0921   -9.7397    0.0000 C   0  0  0  0  0  0  0  0  0  0  0  0
    6.5884   -9.6351    0.0000 C   0  0  0  0  0  0  0  0  0  0  0  0
    7.4272  -10.8786    0.0000 O   0  0  0  0  0  0  0  0  0  0  0  0
    6.7697  -12.2268    0.0000 C   0  0  0  0  0  0  0  0  0  0  0  0
    7.6085  -13.4704    0.0000 C   0  0  0  0  0  0  0  0  0  0  0  0
    9.1048  -13.3657    0.0000 O   0  0  0  0  0  0  0  0  0  0  0  0
    6.9509  -14.8186    0.0000 C   0  0  0  0  0  0  0  0  0  0  0  0
    7.7897  -16.0621    0.0000 N   0  0  0  0  0  0  0  0  0  0  0  0
    7.1321  -17.4103    0.0000 C   0  0  0  0  0  0  0  0  0  0  0  0
    5.6358  -17.5149    0.0000 O   0  0  0  0  0  0  0  0  0  0  0  0
    7.9709  -18.6539    0.0000 N   0  0  0  0  0  0  0  0  0  0  0  0
    7.3134  -20.0020    0.0000 C   0  0  0  0  0  0  0  0  0  0  0  0
    8.1522  -21.2456    0.0000 C   0  0  0  0  0  0  0  0  0  0  0  0
    9.5004  -21.9032    0.0000 C   0  0  0  0  0  0  0  0  0  0  0  0
    8.2568  -22.7419    0.0000 O   0  0  0  0  0  0  0  0  0  0  0  0
    9.4673  -18.5492    0.0000 C   0  0  0  0  0  0  0  0  0  0  0  0
   10.3061  -19.7928    0.0000 O   0  0  0  0  0  0  0  0  0  0  0  0
   10.1248  -17.2010    0.0000 N   0  0  0  0  0  0  0  0  0  0  0  0
   11.6212  -17.0964    0.0000 C   0  0  0  0  0  0  0  0  0  0  0  0
   12.2787  -15.7482    0.0000 C   0  0  0  0  0  0  0  0  0  0  0  0
   12.1741  -14.2519    0.0000 C   0  0  0  0  0  0  0  0  0  0  0  0
   13.5223  -14.9094    0.0000 O   0  0  0  0  0  0  0  0  0  0  0  0
    9.2860  -15.9575    0.0000 C   0  0  0  0  0  0  0  0  0  0  0  0
    9.9436  -14.6093    0.0000 O   0  0  0  0  0  0  0  0  0  0  0  0
    7.2460   -8.2869    0.0000 C   0  0  0  0  0  0  0  0  0  0  0  0
    8.7424   -8.1822    0.0000 O   0  0  0  0  0  0  0  0  0  0  0  0
    9.3999   -6.8340    0.0000 C   0  0  0  0  0  0  0  0  0  0  0  0
   10.8963   -6.7294    0.0000 C   0  0  0  0  0  0  0  0  0  0  0  0
   12.1398   -5.8906    0.0000 C   0  0  0  0  0  0  0  0  0  0  0  0
   12.2444   -7.3870    0.0000 O   0  0  0  0  0  0  0  0  0  0  0  0
    6.4072   -7.0433    0.0000 C   0  0  0  0  0  0  0  0  0  0  0  0
  1  2  2  0
  2  3  1  0
  3  4  1  0
  4  5  1  0
  5  6  2  0
  5  7  1  0
  7  8  1  0
  8  9  2  0
  9 10  1  0
 10 11  2  0
 11 12  1  0
 12 13  2  0
 13 14  1  0
 14 15  2  0
 15 16  1  0
 16 17  2  0
 17 18  1  0
 18 19  2  0
  4 20  1  0
 20 21  2  0
 20 22  1  0
 22 23  1  0
 23 24  2  0
 24 25  1  0
 25 26  2  0
 26 27  1  0
 27 28  1  0
 28 29  1  0
 29 30  1  0
 29 31  1  0
 31 32  1  0
 32 33  1  0
 33 34  2  0
 33 35  1  0
 35 36  1  0
 36 37  1  0
 37 38  1  0
 38 39  1  0
 35 40  1  0
 40 41  2  0
 40 42  1  0
 42 43  1  0
 43 44  1  0
 44 45  1  0
 45 46  1  0
 42 47  1  0
 47 48  2  0
 26 49  1  0
 49 50  1  0
 50 51  1  0
 51 52  1  0
 52 53  1  0
 53 54  1  0
 49 55  2  0
 22  2  1  0
 55 23  1  0
 19  5  1  0
 47 32  1  0
 54 52  1  0
 13  8  1  0
 19 14  1  0
 39 37  1  0
 46 44  1  0
M  END
>  <Candidate_ID>  (96) 
CAND_R2_096

>  <Candidate_Name>  (96) 
DOPO-HPM-glycidyloxy

>  <Parent_Seed_ID>  (96) 
TRAIN_007

>  <Parent_Name>  (96) 
DOPO-HPM

>  <Transformation_Code>  (96) 
glycidyloxy

>  <Design_Family>  (96) 
P-N

>  <Preparation_Type>  (96) 
Co-curing

>  <Synthesis_Level>  (96) 
B

>  <Parent_Tanimoto_r3>  (96) 
0.7058823529411765

>  <Max_Train_Tanimoto_r3>  (96) 
0.7058823529411765

>  <Risk_Flags>  (96) 
none

$$$$
CAND_R2_097 | DOPO-HPM-diaminotriazine
     RDKit          2D

 58 66  0  0  0  0  0  0  0  0999 V2000
    6.3995    2.7824    0.0000 N   0  0  0  0  0  0  0  0  0  0  0  0
    7.4785    1.7404    0.0000 C   0  0  0  0  0  0  0  0  0  0  0  0
    8.9204    2.1538    0.0000 N   0  0  0  0  0  0  0  0  0  0  0  0
    9.9994    1.1119    0.0000 C   0  0  0  0  0  0  0  0  0  0  0  0
   11.4413    1.5253    0.0000 N   0  0  0  0  0  0  0  0  0  0  0  0
    9.6366   -0.3436    0.0000 N   0  0  0  0  0  0  0  0  0  0  0  0
    8.1947   -0.7570    0.0000 C   0  0  0  0  0  0  0  0  0  0  0  0
    7.8318   -2.2125    0.0000 C   0  0  0  0  0  0  0  0  0  0  0  0
    6.3899   -2.6259    0.0000 C   0  0  0  0  0  0  0  0  0  0  0  0
    6.0270   -4.0814    0.0000 C   0  0  0  0  0  0  0  0  0  0  0  0
    4.5851   -4.4948    0.0000 N   0  0  0  0  0  0  0  0  0  0  0  0
    4.0721   -5.9044    0.0000 C   0  0  0  0  0  0  0  0  0  0  0  0
    4.9109   -7.1479    0.0000 O   0  0  0  0  0  0  0  0  0  0  0  0
    2.5730   -5.8520    0.0000 C   0  0  0  0  0  0  0  0  0  0  0  0
    2.1595   -4.4101    0.0000 C   0  0  0  0  0  0  0  0  0  0  0  0
    0.7500   -3.8971    0.0000 P   0  0  0  0  0  0  0  0  0  0  0  0
    0.4895   -5.3743    0.0000 O   0  0  0  0  0  0  0  0  0  0  0  0
    1.5000   -2.5981    0.0000 O   0  0  0  0  0  0  0  0  0  0  0  0
    0.7500   -1.2990    0.0000 C   0  0  0  0  0  0  0  0  0  0  0  0
    1.5000    0.0000    0.0000 C   0  0  0  0  0  0  0  0  0  0  0  0
    0.7500    1.2990    0.0000 C   0  0  0  0  0  0  0  0  0  0  0  0
   -0.7500    1.2990    0.0000 C   0  0  0  0  0  0  0  0  0  0  0  0
   -1.5000    0.0000    0.0000 C   0  0  0  0  0  0  0  0  0  0  0  0
   -0.7500   -1.2990    0.0000 C   0  0  0  0  0  0  0  0  0  0  0  0
   -1.5000   -2.5981    0.0000 C   0  0  0  0  0  0  0  0  0  0  0  0
   -3.0000   -2.5981    0.0000 C   0  0  0  0  0  0  0  0  0  0  0  0
   -3.7500   -3.8971    0.0000 C   0  0  0  0  0  0  0  0  0  0  0  0
   -3.0000   -5.1962    0.0000 C   0  0  0  0  0  0  0  0  0  0  0  0
   -1.5000   -5.1962    0.0000 C   0  0  0  0  0  0  0  0  0  0  0  0
   -0.7500   -3.8971    0.0000 C   0  0  0  0  0  0  0  0  0  0  0  0
    3.4031   -3.5714    0.0000 C   0  0  0  0  0  0  0  0  0  0  0  0
    3.4554   -2.0723    0.0000 O   0  0  0  0  0  0  0  0  0  0  0  0
    7.1060   -5.1234    0.0000 C   0  0  0  0  0  0  0  0  0  0  0  0
    8.5479   -4.7099    0.0000 C   0  0  0  0  0  0  0  0  0  0  0  0
    8.9108   -3.2545    0.0000 C   0  0  0  0  0  0  0  0  0  0  0  0
   10.3527   -2.8410    0.0000 O   0  0  0  0  0  0  0  0  0  0  0  0
   11.4317   -3.8830    0.0000 C   0  0  0  0  0  0  0  0  0  0  0  0
   12.8736   -3.4696    0.0000 C   0  0  0  0  0  0  0  0  0  0  0  0
   13.2365   -2.0141    0.0000 O   0  0  0  0  0  0  0  0  0  0  0  0
   13.9526   -4.5115    0.0000 C   0  0  0  0  0  0  0  0  0  0  0  0
   15.3945   -4.0981    0.0000 N   0  0  0  0  0  0  0  0  0  0  0  0
   16.4735   -5.1401    0.0000 C   0  0  0  0  0  0  0  0  0  0  0  0
   16.1106   -6.5955    0.0000 O   0  0  0  0  0  0  0  0  0  0  0  0
   17.9154   -4.7266    0.0000 N   0  0  0  0  0  0  0  0  0  0  0  0
   18.9944   -5.7686    0.0000 C   0  0  0  0  0  0  0  0  0  0  0  0
   20.4363   -5.3551    0.0000 C   0  0  0  0  0  0  0  0  0  0  0  0
   21.4783   -4.2761    0.0000 C   0  0  0  0  0  0  0  0  0  0  0  0
   21.8917   -5.7180    0.0000 O   0  0  0  0  0  0  0  0  0  0  0  0
   18.2783   -3.2712    0.0000 C   0  0  0  0  0  0  0  0  0  0  0  0
   19.7202   -2.8577    0.0000 O   0  0  0  0  0  0  0  0  0  0  0  0
   17.1993   -2.2292    0.0000 N   0  0  0  0  0  0  0  0  0  0  0  0
   17.5621   -0.7737    0.0000 C   0  0  0  0  0  0  0  0  0  0  0  0
   16.4831    0.2682    0.0000 C   0  0  0  0  0  0  0  0  0  0  0  0
   15.0277    0.6311    0.0000 C   0  0  0  0  0  0  0  0  0  0  0  0
   16.0697    1.7101    0.0000 O   0  0  0  0  0  0  0  0  0  0  0  0
   15.7574   -2.6426    0.0000 C   0  0  0  0  0  0  0  0  0  0  0  0
   14.6784   -1.6007    0.0000 O   0  0  0  0  0  0  0  0  0  0  0  0
    7.1157    0.2849    0.0000 N   0  0  0  0  0  0  0  0  0  0  0  0
  1  2  1  0
  2  3  2  0
  3  4  1  0
  4  5  1  0
  4  6  2  0
  6  7  1  0
  7  8  1  0
  8  9  2  0
  9 10  1  0
 10 11  1  0
 11 12  1  0
 12 13  2  0
 12 14  1  0
 14 15  1  0
 15 16  1  0
 16 17  2  0
 16 18  1  0
 18 19  1  0
 19 20  2  0
 20 21  1  0
 21 22  2  0
 22 23  1  0
 23 24  2  0
 24 25  1  0
 25 26  2  0
 26 27  1  0
 27 28  2  0
 28 29  1  0
 29 30  2  0
 15 31  1  0
 31 32  2  0
 10 33  2  0
 33 34  1  0
 34 35  2  0
 35 36  1  0
 36 37  1  0
 37 38  1  0
 38 39  1  0
 38 40  1  0
 40 41  1  0
 41 42  1  0
 42 43  2  0
 42 44  1  0
 44 45  1  0
 45 46  1  0
 46 47  1  0
 47 48  1  0
 44 49  1  0
 49 50  2  0
 49 51  1  0
 51 52  1  0
 52 53  1  0
 53 54  1  0
 54 55  1  0
 51 56  1  0
 56 57  2  0
  7 58  2  0
 58  2  1  0
 35  8  1  0
 56 41  1  0
 31 11  1  0
 48 46  1  0
 55 53  1  0
 30 16  1  0
 24 19  1  0
 30 25  1  0
M  END
>  <Candidate_ID>  (97) 
CAND_R2_097

>  <Candidate_Name>  (97) 
DOPO-HPM-diaminotriazine

>  <Parent_Seed_ID>  (97) 
TRAIN_007

>  <Parent_Name>  (97) 
DOPO-HPM

>  <Transformation_Code>  (97) 
diaminotriazine

>  <Design_Family>  (97) 
P-N

>  <Preparation_Type>  (97) 
Co-curing

>  <Synthesis_Level>  (97) 
B

>  <Parent_Tanimoto_r3>  (97) 
0.6614173228346457

>  <Max_Train_Tanimoto_r3>  (97) 
0.6614173228346457

>  <Risk_Flags>  (97) 
candidate may be outside strict in-domain threshold

$$$$
CAND_R2_098 | DOPO-HPM-piperazine
     RDKit          2D

 56 64  0  0  0  0  0  0  0  0999 V2000
    6.0270   -4.0814    0.0000 O   0  0  0  0  0  0  0  0  0  0  0  0
    4.5851   -4.4948    0.0000 C   0  0  0  0  0  0  0  0  0  0  0  0
    3.4031   -3.5714    0.0000 C   0  0  0  0  0  0  0  0  0  0  0  0
    2.1595   -4.4101    0.0000 C   0  0  0  0  0  0  0  0  0  0  0  0
    0.7500   -3.8971    0.0000 P   0  0  0  0  0  0  0  0  0  0  0  0
    0.4895   -5.3743    0.0000 O   0  0  0  0  0  0  0  0  0  0  0  0
    1.5000   -2.5981    0.0000 O   0  0  0  0  0  0  0  0  0  0  0  0
    0.7500   -1.2990    0.0000 C   0  0  0  0  0  0  0  0  0  0  0  0
    1.5000    0.0000    0.0000 C   0  0  0  0  0  0  0  0  0  0  0  0
    0.7500    1.2990    0.0000 C   0  0  0  0  0  0  0  0  0  0  0  0
   -0.7500    1.2990    0.0000 C   0  0  0  0  0  0  0  0  0  0  0  0
   -1.5000    0.0000    0.0000 C   0  0  0  0  0  0  0  0  0  0  0  0
   -0.7500   -1.2990    0.0000 C   0  0  0  0  0  0  0  0  0  0  0  0
   -1.5000   -2.5981    0.0000 C   0  0  0  0  0  0  0  0  0  0  0  0
   -3.0000   -2.5981    0.0000 C   0  0  0  0  0  0  0  0  0  0  0  0
   -3.7500   -3.8971    0.0000 C   0  0  0  0  0  0  0  0  0  0  0  0
   -3.0000   -5.1962    0.0000 C   0  0  0  0  0  0  0  0  0  0  0  0
   -1.5000   -5.1962    0.0000 C   0  0  0  0  0  0  0  0  0  0  0  0
   -0.7500   -3.8971    0.0000 C   0  0  0  0  0  0  0  0  0  0  0  0
    2.5730   -5.8520    0.0000 C   0  0  0  0  0  0  0  0  0  0  0  0
    1.6495   -7.0341    0.0000 O   0  0  0  0  0  0  0  0  0  0  0  0
    4.0721   -5.9044    0.0000 N   0  0  0  0  0  0  0  0  0  0  0  0
    4.9109   -7.1479    0.0000 C   0  0  0  0  0  0  0  0  0  0  0  0
    4.2533   -8.4961    0.0000 C   0  0  0  0  0  0  0  0  0  0  0  0
    5.0921   -9.7397    0.0000 C   0  0  0  0  0  0  0  0  0  0  0  0
    6.5884   -9.6351    0.0000 C   0  0  0  0  0  0  0  0  0  0  0  0
    7.4272  -10.8786    0.0000 O   0  0  0  0  0  0  0  0  0  0  0  0
    6.7697  -12.2268    0.0000 C   0  0  0  0  0  0  0  0  0  0  0  0
    7.6085  -13.4704    0.0000 C   0  0  0  0  0  0  0  0  0  0  0  0
    9.1048  -13.3657    0.0000 O   0  0  0  0  0  0  0  0  0  0  0  0
    6.9509  -14.8186    0.0000 C   0  0  0  0  0  0  0  0  0  0  0  0
    7.7897  -16.0621    0.0000 N   0  0  0  0  0  0  0  0  0  0  0  0
    7.1321  -17.4103    0.0000 C   0  0  0  0  0  0  0  0  0  0  0  0
    5.6358  -17.5149    0.0000 O   0  0  0  0  0  0  0  0  0  0  0  0
    7.9709  -18.6539    0.0000 N   0  0  0  0  0  0  0  0  0  0  0  0
    7.3134  -20.0020    0.0000 C   0  0  0  0  0  0  0  0  0  0  0  0
    8.1522  -21.2456    0.0000 C   0  0  0  0  0  0  0  0  0  0  0  0
    9.5004  -21.9032    0.0000 C   0  0  0  0  0  0  0  0  0  0  0  0
    8.2568  -22.7419    0.0000 O   0  0  0  0  0  0  0  0  0  0  0  0
    9.4673  -18.5492    0.0000 C   0  0  0  0  0  0  0  0  0  0  0  0
   10.3061  -19.7928    0.0000 O   0  0  0  0  0  0  0  0  0  0  0  0
   10.1248  -17.2010    0.0000 N   0  0  0  0  0  0  0  0  0  0  0  0
   11.6212  -17.0964    0.0000 C   0  0  0  0  0  0  0  0  0  0  0  0
   12.2787  -15.7482    0.0000 C   0  0  0  0  0  0  0  0  0  0  0  0
   12.1741  -14.2519    0.0000 C   0  0  0  0  0  0  0  0  0  0  0  0
   13.5223  -14.9094    0.0000 O   0  0  0  0  0  0  0  0  0  0  0  0
    9.2860  -15.9575    0.0000 C   0  0  0  0  0  0  0  0  0  0  0  0
    9.9436  -14.6093    0.0000 O   0  0  0  0  0  0  0  0  0  0  0  0
    7.2460   -8.2869    0.0000 C   0  0  0  0  0  0  0  0  0  0  0  0
    8.7424   -8.1822    0.0000 N   0  0  0  0  0  0  0  0  0  0  0  0
    9.5811   -9.4258    0.0000 C   0  0  0  0  0  0  0  0  0  0  0  0
   11.0775   -9.3212    0.0000 C   0  0  0  0  0  0  0  0  0  0  0  0
   11.7350   -7.9730    0.0000 N   0  0  0  0  0  0  0  0  0  0  0  0
   10.8963   -6.7294    0.0000 C   0  0  0  0  0  0  0  0  0  0  0  0
    9.3999   -6.8340    0.0000 C   0  0  0  0  0  0  0  0  0  0  0  0
    6.4072   -7.0433    0.0000 C   0  0  0  0  0  0  0  0  0  0  0  0
  1  2  2  0
  2  3  1  0
  3  4  1  0
  4  5  1  0
  5  6  2  0
  5  7  1  0
  7  8  1  0
  8  9  2  0
  9 10  1  0
 10 11  2  0
 11 12  1  0
 12 13  2  0
 13 14  1  0
 14 15  2  0
 15 16  1  0
 16 17  2  0
 17 18  1  0
 18 19  2  0
  4 20  1  0
 20 21  2  0
 20 22  1  0
 22 23  1  0
 23 24  2  0
 24 25  1  0
 25 26  2  0
 26 27  1  0
 27 28  1  0
 28 29  1  0
 29 30  1  0
 29 31  1  0
 31 32  1  0
 32 33  1  0
 33 34  2  0
 33 35  1  0
 35 36  1  0
 36 37  1  0
 37 38  1  0
 38 39  1  0
 35 40  1  0
 40 41  2  0
 40 42  1  0
 42 43  1  0
 43 44  1  0
 44 45  1  0
 45 46  1  0
 42 47  1  0
 47 48  2  0
 26 49  1  0
 49 50  1  0
 50 51  1  0
 51 52  1  0
 52 53  1  0
 53 54  1  0
 54 55  1  0
 49 56  2  0
 22  2  1  0
 56 23  1  0
 19  5  1  0
 47 32  1  0
 55 50  1  0
 13  8  1  0
 19 14  1  0
 39 37  1  0
 46 44  1  0
M  END
>  <Candidate_ID>  (98) 
CAND_R2_098

>  <Candidate_Name>  (98) 
DOPO-HPM-piperazine

>  <Parent_Seed_ID>  (98) 
TRAIN_007

>  <Parent_Name>  (98) 
DOPO-HPM

>  <Transformation_Code>  (98) 
piperazine

>  <Design_Family>  (98) 
P-N

>  <Preparation_Type>  (98) 
Co-curing

>  <Synthesis_Level>  (98) 
B

>  <Parent_Tanimoto_r3>  (98) 
0.672

>  <Max_Train_Tanimoto_r3>  (98) 
0.672

>  <Risk_Flags>  (98) 
candidate may be outside strict in-domain threshold

$$$$
CAND_R2_099 | DOPO-HPM-benzamide-linker
     RDKit          2D

 59 67  0  0  0  0  0  0  0  0999 V2000
   10.7156   -1.3856    0.0000 O   0  0  0  0  0  0  0  0  0  0  0  0
    9.6366   -0.3436    0.0000 C   0  0  0  0  0  0  0  0  0  0  0  0
    8.1947   -0.7570    0.0000 N   0  0  0  0  0  0  0  0  0  0  0  0
    7.8318   -2.2125    0.0000 C   0  0  0  0  0  0  0  0  0  0  0  0
    6.3899   -2.6259    0.0000 C   0  0  0  0  0  0  0  0  0  0  0  0
    6.0270   -4.0814    0.0000 C   0  0  0  0  0  0  0  0  0  0  0  0
    4.5851   -4.4948    0.0000 N   0  0  0  0  0  0  0  0  0  0  0  0
    4.0721   -5.9044    0.0000 C   0  0  0  0  0  0  0  0  0  0  0  0
    4.9109   -7.1479    0.0000 O   0  0  0  0  0  0  0  0  0  0  0  0
    2.5730   -5.8520    0.0000 C   0  0  0  0  0  0  0  0  0  0  0  0
    2.1595   -4.4101    0.0000 C   0  0  0  0  0  0  0  0  0  0  0  0
    0.7500   -3.8971    0.0000 P   0  0  0  0  0  0  0  0  0  0  0  0
    0.4895   -5.3743    0.0000 O   0  0  0  0  0  0  0  0  0  0  0  0
    1.5000   -2.5981    0.0000 O   0  0  0  0  0  0  0  0  0  0  0  0
    0.7500   -1.2990    0.0000 C   0  0  0  0  0  0  0  0  0  0  0  0
    1.5000    0.0000    0.0000 C   0  0  0  0  0  0  0  0  0  0  0  0
    0.7500    1.2990    0.0000 C   0  0  0  0  0  0  0  0  0  0  0  0
   -0.7500    1.2990    0.0000 C   0  0  0  0  0  0  0  0  0  0  0  0
   -1.5000    0.0000    0.0000 C   0  0  0  0  0  0  0  0  0  0  0  0
   -0.7500   -1.2990    0.0000 C   0  0  0  0  0  0  0  0  0  0  0  0
   -1.5000   -2.5981    0.0000 C   0  0  0  0  0  0  0  0  0  0  0  0
   -3.0000   -2.5981    0.0000 C   0  0  0  0  0  0  0  0  0  0  0  0
   -3.7500   -3.8971    0.0000 C   0  0  0  0  0  0  0  0  0  0  0  0
   -3.0000   -5.1962    0.0000 C   0  0  0  0  0  0  0  0  0  0  0  0
   -1.5000   -5.1962    0.0000 C   0  0  0  0  0  0  0  0  0  0  0  0
   -0.7500   -3.8971    0.0000 C   0  0  0  0  0  0  0  0  0  0  0  0
    3.4031   -3.5714    0.0000 C   0  0  0  0  0  0  0  0  0  0  0  0
    3.4554   -2.0723    0.0000 O   0  0  0  0  0  0  0  0  0  0  0  0
    7.1060   -5.1234    0.0000 C   0  0  0  0  0  0  0  0  0  0  0  0
    8.5479   -4.7099    0.0000 C   0  0  0  0  0  0  0  0  0  0  0  0
    8.9108   -3.2545    0.0000 C   0  0  0  0  0  0  0  0  0  0  0  0
   10.3527   -2.8410    0.0000 O   0  0  0  0  0  0  0  0  0  0  0  0
   11.4317   -3.8830    0.0000 C   0  0  0  0  0  0  0  0  0  0  0  0
   12.8736   -3.4696    0.0000 C   0  0  0  0  0  0  0  0  0  0  0  0
   13.2365   -2.0141    0.0000 O   0  0  0  0  0  0  0  0  0  0  0  0
   13.9526   -4.5115    0.0000 C   0  0  0  0  0  0  0  0  0  0  0  0
   15.3945   -4.0981    0.0000 N   0  0  0  0  0  0  0  0  0  0  0  0
   16.4735   -5.1401    0.0000 C   0  0  0  0  0  0  0  0  0  0  0  0
   16.1106   -6.5955    0.0000 O   0  0  0  0  0  0  0  0  0  0  0  0
   17.9154   -4.7266    0.0000 N   0  0  0  0  0  0  0  0  0  0  0  0
   18.9944   -5.7686    0.0000 C   0  0  0  0  0  0  0  0  0  0  0  0
   20.4363   -5.3551    0.0000 C   0  0  0  0  0  0  0  0  0  0  0  0
   21.4783   -4.2761    0.0000 C   0  0  0  0  0  0  0  0  0  0  0  0
   21.8917   -5.7180    0.0000 O   0  0  0  0  0  0  0  0  0  0  0  0
   18.2783   -3.2712    0.0000 C   0  0  0  0  0  0  0  0  0  0  0  0
   19.7202   -2.8577    0.0000 O   0  0  0  0  0  0  0  0  0  0  0  0
   17.1993   -2.2292    0.0000 N   0  0  0  0  0  0  0  0  0  0  0  0
   17.5621   -0.7737    0.0000 C   0  0  0  0  0  0  0  0  0  0  0  0
   16.4831    0.2682    0.0000 C   0  0  0  0  0  0  0  0  0  0  0  0
   15.0277    0.6311    0.0000 C   0  0  0  0  0  0  0  0  0  0  0  0
   16.0697    1.7101    0.0000 O   0  0  0  0  0  0  0  0  0  0  0  0
   15.7574   -2.6426    0.0000 C   0  0  0  0  0  0  0  0  0  0  0  0
   14.6784   -1.6007    0.0000 O   0  0  0  0  0  0  0  0  0  0  0  0
    9.9994    1.1119    0.0000 C   0  0  0  0  0  0  0  0  0  0  0  0
   11.4413    1.5253    0.0000 C   0  0  0  0  0  0  0  0  0  0  0  0
   11.8042    2.9808    0.0000 C   0  0  0  0  0  0  0  0  0  0  0  0
   10.7252    4.0227    0.0000 C   0  0  0  0  0  0  0  0  0  0  0  0
    9.2833    3.6093    0.0000 C   0  0  0  0  0  0  0  0  0  0  0  0
    8.9204    2.1538    0.0000 C   0  0  0  0  0  0  0  0  0  0  0  0
  1  2  2  0
  2  3  1  0
  3  4  1  0
  4  5  2  0
  5  6  1  0
  6  7  1  0
  7  8  1  0
  8  9  2  0
  8 10  1  0
 10 11  1  0
 11 12  1  0
 12 13  2  0
 12 14  1  0
 14 15  1  0
 15 16  2  0
 16 17  1  0
 17 18  2  0
 18 19  1  0
 19 20  2  0
 20 21  1  0
 21 22  2  0
 22 23  1  0
 23 24  2  0
 24 25  1  0
 25 26  2  0
 11 27  1  0
 27 28  2  0
  6 29  2  0
 29 30  1  0
 30 31  2  0
 31 32  1  0
 32 33  1  0
 33 34  1  0
 34 35  1  0
 34 36  1  0
 36 37  1  0
 37 38  1  0
 38 39  2  0
 38 40  1  0
 40 41  1  0
 41 42  1  0
 42 43  1  0
 43 44  1  0
 40 45  1  0
 45 46  2  0
 45 47  1  0
 47 48  1  0
 48 49  1  0
 49 50  1  0
 50 51  1  0
 47 52  1  0
 52 53  2  0
  2 54  1  0
 54 55  2  0
 55 56  1  0
 56 57  2  0
 57 58  1  0
 58 59  2  0
 31  4  1  0
 52 37  1  0
 59 54  1  0
 27  7  1  0
 44 42  1  0
 51 49  1  0
 26 12  1  0
 20 15  1  0
 26 21  1  0
M  END
>  <Candidate_ID>  (99) 
CAND_R2_099

>  <Candidate_Name>  (99) 
DOPO-HPM-benzamide-linker

>  <Parent_Seed_ID>  (99) 
TRAIN_007

>  <Parent_Name>  (99) 
DOPO-HPM

>  <Transformation_Code>  (99) 
benzamide_linker

>  <Design_Family>  (99) 
P-N

>  <Preparation_Type>  (99) 
Additive

>  <Synthesis_Level>  (99) 
B

>  <Parent_Tanimoto_r3>  (99) 
0.6511627906976745

>  <Max_Train_Tanimoto_r3>  (99) 
0.6511627906976745

>  <Risk_Flags>  (99) 
candidate may be outside strict in-domain threshold

$$$$
CAND_R2_100 | DOPO-HPM-phenyl
     RDKit          2D

 56 64  0  0  0  0  0  0  0  0999 V2000
    6.0270   -4.0814    0.0000 O   0  0  0  0  0  0  0  0  0  0  0  0
    4.5851   -4.4948    0.0000 C   0  0  0  0  0  0  0  0  0  0  0  0
    3.4031   -3.5714    0.0000 C   0  0  0  0  0  0  0  0  0  0  0  0
    2.1595   -4.4101    0.0000 C   0  0  0  0  0  0  0  0  0  0  0  0
    0.7500   -3.8971    0.0000 P   0  0  0  0  0  0  0  0  0  0  0  0
    0.4895   -5.3743    0.0000 O   0  0  0  0  0  0  0  0  0  0  0  0
    1.5000   -2.5981    0.0000 O   0  0  0  0  0  0  0  0  0  0  0  0
    0.7500   -1.2990    0.0000 C   0  0  0  0  0  0  0  0  0  0  0  0
    1.5000    0.0000    0.0000 C   0  0  0  0  0  0  0  0  0  0  0  0
    0.7500    1.2990    0.0000 C   0  0  0  0  0  0  0  0  0  0  0  0
   -0.7500    1.2990    0.0000 C   0  0  0  0  0  0  0  0  0  0  0  0
   -1.5000    0.0000    0.0000 C   0  0  0  0  0  0  0  0  0  0  0  0
   -0.7500   -1.2990    0.0000 C   0  0  0  0  0  0  0  0  0  0  0  0
   -1.5000   -2.5981    0.0000 C   0  0  0  0  0  0  0  0  0  0  0  0
   -3.0000   -2.5981    0.0000 C   0  0  0  0  0  0  0  0  0  0  0  0
   -3.7500   -3.8971    0.0000 C   0  0  0  0  0  0  0  0  0  0  0  0
   -3.0000   -5.1962    0.0000 C   0  0  0  0  0  0  0  0  0  0  0  0
   -1.5000   -5.1962    0.0000 C   0  0  0  0  0  0  0  0  0  0  0  0
   -0.7500   -3.8971    0.0000 C   0  0  0  0  0  0  0  0  0  0  0  0
    2.5730   -5.8520    0.0000 C   0  0  0  0  0  0  0  0  0  0  0  0
    1.6495   -7.0341    0.0000 O   0  0  0  0  0  0  0  0  0  0  0  0
    4.0721   -5.9044    0.0000 N   0  0  0  0  0  0  0  0  0  0  0  0
    4.9109   -7.1479    0.0000 C   0  0  0  0  0  0  0  0  0  0  0  0
    4.2533   -8.4961    0.0000 C   0  0  0  0  0  0  0  0  0  0  0  0
    5.0921   -9.7397    0.0000 C   0  0  0  0  0  0  0  0  0  0  0  0
    6.5884   -9.6351    0.0000 C   0  0  0  0  0  0  0  0  0  0  0  0
    7.4272  -10.8786    0.0000 O   0  0  0  0  0  0  0  0  0  0  0  0
    6.7697  -12.2268    0.0000 C   0  0  0  0  0  0  0  0  0  0  0  0
    7.6085  -13.4704    0.0000 C   0  0  0  0  0  0  0  0  0  0  0  0
    9.1048  -13.3657    0.0000 O   0  0  0  0  0  0  0  0  0  0  0  0
    6.9509  -14.8186    0.0000 C   0  0  0  0  0  0  0  0  0  0  0  0
    7.7897  -16.0621    0.0000 N   0  0  0  0  0  0  0  0  0  0  0  0
    7.1321  -17.4103    0.0000 C   0  0  0  0  0  0  0  0  0  0  0  0
    5.6358  -17.5149    0.0000 O   0  0  0  0  0  0  0  0  0  0  0  0
    7.9709  -18.6539    0.0000 N   0  0  0  0  0  0  0  0  0  0  0  0
    7.3134  -20.0020    0.0000 C   0  0  0  0  0  0  0  0  0  0  0  0
    8.1522  -21.2456    0.0000 C   0  0  0  0  0  0  0  0  0  0  0  0
    9.5004  -21.9032    0.0000 C   0  0  0  0  0  0  0  0  0  0  0  0
    8.2568  -22.7419    0.0000 O   0  0  0  0  0  0  0  0  0  0  0  0
    9.4673  -18.5492    0.0000 C   0  0  0  0  0  0  0  0  0  0  0  0
   10.3061  -19.7928    0.0000 O   0  0  0  0  0  0  0  0  0  0  0  0
   10.1248  -17.2010    0.0000 N   0  0  0  0  0  0  0  0  0  0  0  0
   11.6212  -17.0964    0.0000 C   0  0  0  0  0  0  0  0  0  0  0  0
   12.2787  -15.7482    0.0000 C   0  0  0  0  0  0  0  0  0  0  0  0
   12.1741  -14.2519    0.0000 C   0  0  0  0  0  0  0  0  0  0  0  0
   13.5223  -14.9094    0.0000 O   0  0  0  0  0  0  0  0  0  0  0  0
    9.2860  -15.9575    0.0000 C   0  0  0  0  0  0  0  0  0  0  0  0
    9.9436  -14.6093    0.0000 O   0  0  0  0  0  0  0  0  0  0  0  0
    7.2460   -8.2869    0.0000 C   0  0  0  0  0  0  0  0  0  0  0  0
    8.7424   -8.1822    0.0000 C   0  0  0  0  0  0  0  0  0  0  0  0
    9.5811   -9.4258    0.0000 C   0  0  0  0  0  0  0  0  0  0  0  0
   11.0775   -9.3212    0.0000 C   0  0  0  0  0  0  0  0  0  0  0  0
   11.7350   -7.9730    0.0000 C   0  0  0  0  0  0  0  0  0  0  0  0
   10.8963   -6.7294    0.0000 C   0  0  0  0  0  0  0  0  0  0  0  0
    9.3999   -6.8340    0.0000 C   0  0  0  0  0  0  0  0  0  0  0  0
    6.4072   -7.0433    0.0000 C   0  0  0  0  0  0  0  0  0  0  0  0
  1  2  2  0
  2  3  1  0
  3  4  1  0
  4  5  1  0
  5  6  2  0
  5  7  1  0
  7  8  1  0
  8  9  2  0
  9 10  1  0
 10 11  2  0
 11 12  1  0
 12 13  2  0
 13 14  1  0
 14 15  2  0
 15 16  1  0
 16 17  2  0
 17 18  1  0
 18 19  2  0
  4 20  1  0
 20 21  2  0
 20 22  1  0
 22 23  1  0
 23 24  2  0
 24 25  1  0
 25 26  2  0
 26 27  1  0
 27 28  1  0
 28 29  1  0
 29 30  1  0
 29 31  1  0
 31 32  1  0
 32 33  1  0
 33 34  2  0
 33 35  1  0
 35 36  1  0
 36 37  1  0
 37 38  1  0
 38 39  1  0
 35 40  1  0
 40 41  2  0
 40 42  1  0
 42 43  1  0
 43 44  1  0
 44 45  1  0
 45 46  1  0
 42 47  1  0
 47 48  2  0
 26 49  1  0
 49 50  1  0
 50 51  2  0
 51 52  1  0
 52 53  2  0
 53 54  1  0
 54 55  2  0
 49 56  2  0
 22  2  1  0
 56 23  1  0
 19  5  1  0
 47 32  1  0
 55 50  1  0
 13  8  1  0
 19 14  1  0
 39 37  1  0
 46 44  1  0
M  END
>  <Candidate_ID>  (100) 
CAND_R2_100

>  <Candidate_Name>  (100) 
DOPO-HPM-phenyl

>  <Parent_Seed_ID>  (100) 
TRAIN_007

>  <Parent_Name>  (100) 
DOPO-HPM

>  <Transformation_Code>  (100) 
phenyl

>  <Design_Family>  (100) 
P-N

>  <Preparation_Type>  (100) 
Additive

>  <Synthesis_Level>  (100) 
B

>  <Parent_Tanimoto_r3>  (100) 
0.6942148760330579

>  <Max_Train_Tanimoto_r3>  (100) 
0.6942148760330579

>  <Risk_Flags>  (100) 
candidate may be outside strict in-domain threshold

$$$$
CAND_R2_101 | DOPO-HPM-biphenyl
     RDKit          2D

 62 71  0  0  0  0  0  0  0  0999 V2000
    6.0270   -4.0814    0.0000 O   0  0  0  0  0  0  0  0  0  0  0  0
    4.5851   -4.4948    0.0000 C   0  0  0  0  0  0  0  0  0  0  0  0
    3.4031   -3.5714    0.0000 C   0  0  0  0  0  0  0  0  0  0  0  0
    2.1595   -4.4101    0.0000 C   0  0  0  0  0  0  0  0  0  0  0  0
    0.7500   -3.8971    0.0000 P   0  0  0  0  0  0  0  0  0  0  0  0
    0.4895   -5.3743    0.0000 O   0  0  0  0  0  0  0  0  0  0  0  0
    1.5000   -2.5981    0.0000 O   0  0  0  0  0  0  0  0  0  0  0  0
    0.7500   -1.2990    0.0000 C   0  0  0  0  0  0  0  0  0  0  0  0
    1.5000    0.0000    0.0000 C   0  0  0  0  0  0  0  0  0  0  0  0
    0.7500    1.2990    0.0000 C   0  0  0  0  0  0  0  0  0  0  0  0
   -0.7500    1.2990    0.0000 C   0  0  0  0  0  0  0  0  0  0  0  0
   -1.5000    0.0000    0.0000 C   0  0  0  0  0  0  0  0  0  0  0  0
   -0.7500   -1.2990    0.0000 C   0  0  0  0  0  0  0  0  0  0  0  0
   -1.5000   -2.5981    0.0000 C   0  0  0  0  0  0  0  0  0  0  0  0
   -3.0000   -2.5981    0.0000 C   0  0  0  0  0  0  0  0  0  0  0  0
   -3.7500   -3.8971    0.0000 C   0  0  0  0  0  0  0  0  0  0  0  0
   -3.0000   -5.1962    0.0000 C   0  0  0  0  0  0  0  0  0  0  0  0
   -1.5000   -5.1962    0.0000 C   0  0  0  0  0  0  0  0  0  0  0  0
   -0.7500   -3.8971    0.0000 C   0  0  0  0  0  0  0  0  0  0  0  0
    2.5730   -5.8520    0.0000 C   0  0  0  0  0  0  0  0  0  0  0  0
    1.6495   -7.0341    0.0000 O   0  0  0  0  0  0  0  0  0  0  0  0
    4.0721   -5.9044    0.0000 N   0  0  0  0  0  0  0  0  0  0  0  0
    4.9109   -7.1479    0.0000 C   0  0  0  0  0  0  0  0  0  0  0  0
    4.2533   -8.4961    0.0000 C   0  0  0  0  0  0  0  0  0  0  0  0
    5.0921   -9.7397    0.0000 C   0  0  0  0  0  0  0  0  0  0  0  0
    6.5884   -9.6351    0.0000 C   0  0  0  0  0  0  0  0  0  0  0  0
    7.4272  -10.8786    0.0000 O   0  0  0  0  0  0  0  0  0  0  0  0
    6.7697  -12.2268    0.0000 C   0  0  0  0  0  0  0  0  0  0  0  0
    7.6085  -13.4704    0.0000 C   0  0  0  0  0  0  0  0  0  0  0  0
    9.1048  -13.3657    0.0000 O   0  0  0  0  0  0  0  0  0  0  0  0
    6.9509  -14.8186    0.0000 C   0  0  0  0  0  0  0  0  0  0  0  0
    7.7897  -16.0621    0.0000 N   0  0  0  0  0  0  0  0  0  0  0  0
    7.1321  -17.4103    0.0000 C   0  0  0  0  0  0  0  0  0  0  0  0
    5.6358  -17.5149    0.0000 O   0  0  0  0  0  0  0  0  0  0  0  0
    7.9709  -18.6539    0.0000 N   0  0  0  0  0  0  0  0  0  0  0  0
    7.3134  -20.0020    0.0000 C   0  0  0  0  0  0  0  0  0  0  0  0
    8.1522  -21.2456    0.0000 C   0  0  0  0  0  0  0  0  0  0  0  0
    9.5004  -21.9032    0.0000 C   0  0  0  0  0  0  0  0  0  0  0  0
    8.2568  -22.7419    0.0000 O   0  0  0  0  0  0  0  0  0  0  0  0
    9.4673  -18.5492    0.0000 C   0  0  0  0  0  0  0  0  0  0  0  0
   10.3061  -19.7928    0.0000 O   0  0  0  0  0  0  0  0  0  0  0  0
   10.1248  -17.2010    0.0000 N   0  0  0  0  0  0  0  0  0  0  0  0
   11.6212  -17.0964    0.0000 C   0  0  0  0  0  0  0  0  0  0  0  0
   12.2787  -15.7482    0.0000 C   0  0  0  0  0  0  0  0  0  0  0  0
   12.1741  -14.2519    0.0000 C   0  0  0  0  0  0  0  0  0  0  0  0
   13.5223  -14.9094    0.0000 O   0  0  0  0  0  0  0  0  0  0  0  0
    9.2860  -15.9575    0.0000 C   0  0  0  0  0  0  0  0  0  0  0  0
    9.9436  -14.6093    0.0000 O   0  0  0  0  0  0  0  0  0  0  0  0
    7.2460   -8.2869    0.0000 C   0  0  0  0  0  0  0  0  0  0  0  0
    8.7424   -8.1822    0.0000 C   0  0  0  0  0  0  0  0  0  0  0  0
    9.5811   -9.4258    0.0000 C   0  0  0  0  0  0  0  0  0  0  0  0
   11.0775   -9.3212    0.0000 C   0  0  0  0  0  0  0  0  0  0  0  0
   11.7350   -7.9730    0.0000 C   0  0  0  0  0  0  0  0  0  0  0  0
   13.2314   -7.8683    0.0000 C   0  0  0  0  0  0  0  0  0  0  0  0
   14.0702   -9.1119    0.0000 C   0  0  0  0  0  0  0  0  0  0  0  0
   15.5665   -9.0072    0.0000 C   0  0  0  0  0  0  0  0  0  0  0  0
   16.2241   -7.6591    0.0000 C   0  0  0  0  0  0  0  0  0  0  0  0
   15.3853   -6.4155    0.0000 C   0  0  0  0  0  0  0  0  0  0  0  0
   13.8889   -6.5201    0.0000 C   0  0  0  0  0  0  0  0  0  0  0  0
   10.8963   -6.7294    0.0000 C   0  0  0  0  0  0  0  0  0  0  0  0
    9.3999   -6.8340    0.0000 C   0  0  0  0  0  0  0  0  0  0  0  0
    6.4072   -7.0433    0.0000 C   0  0  0  0  0  0  0  0  0  0  0  0
  1  2  2  0
  2  3  1  0
  3  4  1  0
  4  5  1  0
  5  6  2  0
  5  7  1  0
  7  8  1  0
  8  9  2  0
  9 10  1  0
 10 11  2  0
 11 12  1  0
 12 13  2  0
 13 14  1  0
 14 15  2  0
 15 16  1  0
 16 17  2  0
 17 18  1  0
 18 19  2  0
  4 20  1  0
 20 21  2  0
 20 22  1  0
 22 23  1  0
 23 24  2  0
 24 25  1  0
 25 26  2  0
 26 27  1  0
 27 28  1  0
 28 29  1  0
 29 30  1  0
 29 31  1  0
 31 32  1  0
 32 33  1  0
 33 34  2  0
 33 35  1  0
 35 36  1  0
 36 37  1  0
 37 38  1  0
 38 39  1  0
 35 40  1  0
 40 41  2  0
 40 42  1  0
 42 43  1  0
 43 44  1  0
 44 45  1  0
 45 46  1  0
 42 47  1  0
 47 48  2  0
 26 49  1  0
 49 50  1  0
 50 51  2  0
 51 52  1  0
 52 53  2  0
 53 54  1  0
 54 55  2  0
 55 56  1  0
 56 57  2  0
 57 58  1  0
 58 59  2  0
 53 60  1  0
 60 61  2  0
 49 62  2  0
 22  2  1  0
 62 23  1  0
 19  5  1  0
 47 32  1  0
 61 50  1  0
 13  8  1  0
 19 14  1  0
 39 37  1  0
 46 44  1  0
 59 54  1  0
M  END
>  <Candidate_ID>  (101) 
CAND_R2_101

>  <Candidate_Name>  (101) 
DOPO-HPM-biphenyl

>  <Parent_Seed_ID>  (101) 
TRAIN_007

>  <Parent_Name>  (101) 
DOPO-HPM

>  <Transformation_Code>  (101) 
biphenyl

>  <Design_Family>  (101) 
P-N

>  <Preparation_Type>  (101) 
Additive

>  <Synthesis_Level>  (101) 
B

>  <Parent_Tanimoto_r3>  (101) 
0.6614173228346457

>  <Max_Train_Tanimoto_r3>  (101) 
0.6614173228346457

>  <Risk_Flags>  (101) 
candidate may be outside strict in-domain threshold

$$$$
CAND_R2_102 | DOPO-HPM-OH-glycidyl
     RDKit          2D

 54 62  0  0  0  0  0  0  0  0999 V2000
    6.0270   -4.0814    0.0000 O   0  0  0  0  0  0  0  0  0  0  0  0
    4.5851   -4.4948    0.0000 C   0  0  0  0  0  0  0  0  0  0  0  0
    3.4031   -3.5714    0.0000 C   0  0  0  0  0  0  0  0  0  0  0  0
    2.1595   -4.4101    0.0000 C   0  0  0  0  0  0  0  0  0  0  0  0
    0.7500   -3.8971    0.0000 P   0  0  0  0  0  0  0  0  0  0  0  0
    0.4895   -5.3743    0.0000 O   0  0  0  0  0  0  0  0  0  0  0  0
    1.5000   -2.5981    0.0000 O   0  0  0  0  0  0  0  0  0  0  0  0
    0.7500   -1.2990    0.0000 C   0  0  0  0  0  0  0  0  0  0  0  0
    1.5000    0.0000    0.0000 C   0  0  0  0  0  0  0  0  0  0  0  0
    0.7500    1.2990    0.0000 C   0  0  0  0  0  0  0  0  0  0  0  0
   -0.7500    1.2990    0.0000 C   0  0  0  0  0  0  0  0  0  0  0  0
   -1.5000    0.0000    0.0000 C   0  0  0  0  0  0  0  0  0  0  0  0
   -0.7500   -1.2990    0.0000 C   0  0  0  0  0  0  0  0  0  0  0  0
   -1.5000   -2.5981    0.0000 C   0  0  0  0  0  0  0  0  0  0  0  0
   -3.0000   -2.5981    0.0000 C   0  0  0  0  0  0  0  0  0  0  0  0
   -3.7500   -3.8971    0.0000 C   0  0  0  0  0  0  0  0  0  0  0  0
   -3.0000   -5.1962    0.0000 C   0  0  0  0  0  0  0  0  0  0  0  0
   -1.5000   -5.1962    0.0000 C   0  0  0  0  0  0  0  0  0  0  0  0
   -0.7500   -3.8971    0.0000 C   0  0  0  0  0  0  0  0  0  0  0  0
    2.5730   -5.8520    0.0000 C   0  0  0  0  0  0  0  0  0  0  0  0
    1.6495   -7.0341    0.0000 O   0  0  0  0  0  0  0  0  0  0  0  0
    4.0721   -5.9044    0.0000 N   0  0  0  0  0  0  0  0  0  0  0  0
    4.9109   -7.1479    0.0000 C   0  0  0  0  0  0  0  0  0  0  0  0
    4.2533   -8.4961    0.0000 C   0  0  0  0  0  0  0  0  0  0  0  0
    5.0921   -9.7397    0.0000 C   0  0  0  0  0  0  0  0  0  0  0  0
    6.5884   -9.6351    0.0000 C   0  0  0  0  0  0  0  0  0  0  0  0
    7.4272  -10.8786    0.0000 O   0  0  0  0  0  0  0  0  0  0  0  0
    6.7697  -12.2268    0.0000 C   0  0  0  0  0  0  0  0  0  0  0  0
    7.6085  -13.4704    0.0000 C   0  0  0  0  0  0  0  0  0  0  0  0
    6.9509  -14.8186    0.0000 C   0  0  0  0  0  0  0  0  0  0  0  0
    7.7897  -16.0621    0.0000 N   0  0  0  0  0  0  0  0  0  0  0  0
    7.1321  -17.4103    0.0000 C   0  0  0  0  0  0  0  0  0  0  0  0
    5.6358  -17.5149    0.0000 O   0  0  0  0  0  0  0  0  0  0  0  0
    7.9709  -18.6539    0.0000 N   0  0  0  0  0  0  0  0  0  0  0  0
    7.3134  -20.0020    0.0000 C   0  0  0  0  0  0  0  0  0  0  0  0
    8.1522  -21.2456    0.0000 C   0  0  0  0  0  0  0  0  0  0  0  0
    9.5004  -21.9032    0.0000 C   0  0  0  0  0  0  0  0  0  0  0  0
    8.2568  -22.7419    0.0000 O   0  0  0  0  0  0  0  0  0  0  0  0
    9.4673  -18.5492    0.0000 C   0  0  0  0  0  0  0  0  0  0  0  0
   10.3061  -19.7928    0.0000 O   0  0  0  0  0  0  0  0  0  0  0  0
   10.1248  -17.2010    0.0000 N   0  0  0  0  0  0  0  0  0  0  0  0
   11.6212  -17.0964    0.0000 C   0  0  0  0  0  0  0  0  0  0  0  0
   12.4600  -18.3399    0.0000 C   0  0  0  0  0  0  0  0  0  0  0  0
   13.8082  -18.9975    0.0000 C   0  0  0  0  0  0  0  0  0  0  0  0
   12.5646  -19.8363    0.0000 O   0  0  0  0  0  0  0  0  0  0  0  0
    9.2860  -15.9575    0.0000 C   0  0  0  0  0  0  0  0  0  0  0  0
    9.9436  -14.6093    0.0000 O   0  0  0  0  0  0  0  0  0  0  0  0
    9.1048  -13.3657    0.0000 O   0  0  0  0  0  0  0  0  0  0  0  0
    9.7624  -12.0175    0.0000 C   0  0  0  0  0  0  0  0  0  0  0  0
   11.2587  -11.9129    0.0000 C   0  0  0  0  0  0  0  0  0  0  0  0
   12.6069  -12.5705    0.0000 C   0  0  0  0  0  0  0  0  0  0  0  0
   12.5023  -11.0741    0.0000 O   0  0  0  0  0  0  0  0  0  0  0  0
    7.2460   -8.2869    0.0000 C   0  0  0  0  0  0  0  0  0  0  0  0
    6.4072   -7.0433    0.0000 C   0  0  0  0  0  0  0  0  0  0  0  0
  1  2  2  0
  2  3  1  0
  3  4  1  0
  4  5  1  0
  5  6  2  0
  5  7  1  0
  7  8  1  0
  8  9  2  0
  9 10  1  0
 10 11  2  0
 11 12  1  0
 12 13  2  0
 13 14  1  0
 14 15  2  0
 15 16  1  0
 16 17  2  0
 17 18  1  0
 18 19  2  0
  4 20  1  0
 20 21  2  0
 20 22  1  0
 22 23  1  0
 23 24  2  0
 24 25  1  0
 25 26  2  0
 26 27  1  0
 27 28  1  0
 28 29  1  0
 29 30  1  0
 30 31  1  0
 31 32  1  0
 32 33  2  0
 32 34  1  0
 34 35  1  0
 35 36  1  0
 36 37  1  0
 37 38  1  0
 34 39  1  0
 39 40  2  0
 39 41  1  0
 41 42  1  0
 42 43  1  0
 43 44  1  0
 44 45  1  0
 41 46  1  0
 46 47  2  0
 29 48  1  0
 48 49  1  0
 49 50  1  0
 50 51  1  0
 51 52  1  0
 26 53  1  0
 53 54  2  0
 22  2  1  0
 54 23  1  0
 19  5  1  0
 46 31  1  0
 52 50  1  0
 13  8  1  0
 19 14  1  0
 38 36  1  0
 45 43  1  0
M  END
>  <Candidate_ID>  (102) 
CAND_R2_102

>  <Candidate_Name>  (102) 
DOPO-HPM-OH-glycidyl

>  <Parent_Seed_ID>  (102) 
TRAIN_007

>  <Parent_Name>  (102) 
DOPO-HPM

>  <Transformation_Code>  (102) 
OH_glycidyl

>  <Design_Family>  (102) 
P-N

>  <Preparation_Type>  (102) 
Co-curing

>  <Synthesis_Level>  (102) 
B

>  <Parent_Tanimoto_r3>  (102) 
0.7747747747747747

>  <Max_Train_Tanimoto_r3>  (102) 
0.7747747747747747

>  <Risk_Flags>  (102) 
none

$$$$
CAND_R2_103 | DOPO-HPM-OH-methyl
     RDKit          2D

 51 58  0  0  0  0  0  0  0  0999 V2000
   14.6784   -1.6007    0.0000 C   0  0  0  0  0  0  0  0  0  0  0  0
   13.2365   -2.0141    0.0000 O   0  0  0  0  0  0  0  0  0  0  0  0
   12.8736   -3.4696    0.0000 C   0  0  0  0  0  0  0  0  0  0  0  0
   11.4317   -3.8830    0.0000 C   0  0  0  0  0  0  0  0  0  0  0  0
   10.3527   -2.8410    0.0000 O   0  0  0  0  0  0  0  0  0  0  0  0
    8.9108   -3.2545    0.0000 C   0  0  0  0  0  0  0  0  0  0  0  0
    7.8318   -2.2125    0.0000 C   0  0  0  0  0  0  0  0  0  0  0  0
    6.3899   -2.6259    0.0000 C   0  0  0  0  0  0  0  0  0  0  0  0
    6.0270   -4.0814    0.0000 C   0  0  0  0  0  0  0  0  0  0  0  0
    4.5851   -4.4948    0.0000 N   0  0  0  0  0  0  0  0  0  0  0  0
    4.0721   -5.9044    0.0000 C   0  0  0  0  0  0  0  0  0  0  0  0
    4.9109   -7.1479    0.0000 O   0  0  0  0  0  0  0  0  0  0  0  0
    2.5730   -5.8520    0.0000 C   0  0  0  0  0  0  0  0  0  0  0  0
    2.1595   -4.4101    0.0000 C   0  0  0  0  0  0  0  0  0  0  0  0
    0.7500   -3.8971    0.0000 P   0  0  0  0  0  0  0  0  0  0  0  0
    0.4895   -5.3743    0.0000 O   0  0  0  0  0  0  0  0  0  0  0  0
    1.5000   -2.5981    0.0000 O   0  0  0  0  0  0  0  0  0  0  0  0
    0.7500   -1.2990    0.0000 C   0  0  0  0  0  0  0  0  0  0  0  0
    1.5000    0.0000    0.0000 C   0  0  0  0  0  0  0  0  0  0  0  0
    0.7500    1.2990    0.0000 C   0  0  0  0  0  0  0  0  0  0  0  0
   -0.7500    1.2990    0.0000 C   0  0  0  0  0  0  0  0  0  0  0  0
   -1.5000    0.0000    0.0000 C   0  0  0  0  0  0  0  0  0  0  0  0
   -0.7500   -1.2990    0.0000 C   0  0  0  0  0  0  0  0  0  0  0  0
   -1.5000   -2.5981    0.0000 C   0  0  0  0  0  0  0  0  0  0  0  0
   -3.0000   -2.5981    0.0000 C   0  0  0  0  0  0  0  0  0  0  0  0
   -3.7500   -3.8971    0.0000 C   0  0  0  0  0  0  0  0  0  0  0  0
   -3.0000   -5.1962    0.0000 C   0  0  0  0  0  0  0  0  0  0  0  0
   -1.5000   -5.1962    0.0000 C   0  0  0  0  0  0  0  0  0  0  0  0
   -0.7500   -3.8971    0.0000 C   0  0  0  0  0  0  0  0  0  0  0  0
    3.4031   -3.5714    0.0000 C   0  0  0  0  0  0  0  0  0  0  0  0
    3.4554   -2.0723    0.0000 O   0  0  0  0  0  0  0  0  0  0  0  0
    7.1060   -5.1234    0.0000 C   0  0  0  0  0  0  0  0  0  0  0  0
    8.5479   -4.7099    0.0000 C   0  0  0  0  0  0  0  0  0  0  0  0
   13.9526   -4.5115    0.0000 C   0  0  0  0  0  0  0  0  0  0  0  0
   13.5897   -5.9670    0.0000 N   0  0  0  0  0  0  0  0  0  0  0  0
   14.6687   -7.0090    0.0000 C   0  0  0  0  0  0  0  0  0  0  0  0
   16.1106   -6.5955    0.0000 O   0  0  0  0  0  0  0  0  0  0  0  0
   14.3058   -8.4644    0.0000 N   0  0  0  0  0  0  0  0  0  0  0  0
   15.3848   -9.5064    0.0000 C   0  0  0  0  0  0  0  0  0  0  0  0
   15.0220  -10.9618    0.0000 C   0  0  0  0  0  0  0  0  0  0  0  0
   13.9800  -12.0409    0.0000 C   0  0  0  0  0  0  0  0  0  0  0  0
   15.4354  -12.4037    0.0000 O   0  0  0  0  0  0  0  0  0  0  0  0
   12.8639   -8.8779    0.0000 C   0  0  0  0  0  0  0  0  0  0  0  0
   12.5011  -10.3333    0.0000 O   0  0  0  0  0  0  0  0  0  0  0  0
   11.7849   -7.8359    0.0000 N   0  0  0  0  0  0  0  0  0  0  0  0
   10.3430   -8.2493    0.0000 C   0  0  0  0  0  0  0  0  0  0  0  0
    9.9802   -9.7048    0.0000 C   0  0  0  0  0  0  0  0  0  0  0  0
    8.9382  -10.7838    0.0000 C   0  0  0  0  0  0  0  0  0  0  0  0
   10.3936  -11.1467    0.0000 O   0  0  0  0  0  0  0  0  0  0  0  0
   12.1478   -6.3804    0.0000 C   0  0  0  0  0  0  0  0  0  0  0  0
   11.0688   -5.3385    0.0000 O   0  0  0  0  0  0  0  0  0  0  0  0
  1  2  1  0
  2  3  1  0
  3  4  1  0
  4  5  1  0
  5  6  1  0
  6  7  2  0
  7  8  1  0
  8  9  2  0
  9 10  1  0
 10 11  1  0
 11 12  2  0
 11 13  1  0
 13 14  1  0
 14 15  1  0
 15 16  2  0
 15 17  1  0
 17 18  1  0
 18 19  2  0
 19 20  1  0
 20 21  2  0
 21 22  1  0
 22 23  2  0
 23 24  1  0
 24 25  2  0
 25 26  1  0
 26 27  2  0
 27 28  1  0
 28 29  2  0
 14 30  1  0
 30 31  2  0
  9 32  1  0
 32 33  2  0
  3 34  1  0
 34 35  1  0
 35 36  1  0
 36 37  2  0
 36 38  1  0
 38 39  1  0
 39 40  1  0
 40 41  1  0
 41 42  1  0
 38 43  1  0
 43 44  2  0
 43 45  1  0
 45 46  1  0
 46 47  1  0
 47 48  1  0
 48 49  1  0
 45 50  1  0
 50 51  2  0
 33  6  1  0
 50 35  1  0
 30 10  1  0
 42 40  1  0
 49 47  1  0
 29 15  1  0
 23 18  1  0
 29 24  1  0
M  END
>  <Candidate_ID>  (103) 
CAND_R2_103

>  <Candidate_Name>  (103) 
DOPO-HPM-OH-methyl

>  <Parent_Seed_ID>  (103) 
TRAIN_007

>  <Parent_Name>  (103) 
DOPO-HPM

>  <Transformation_Code>  (103) 
OH_methyl

>  <Design_Family>  (103) 
P-N

>  <Preparation_Type>  (103) 
Additive

>  <Synthesis_Level>  (103) 
B

>  <Parent_Tanimoto_r3>  (103) 
0.7962962962962963

>  <Max_Train_Tanimoto_r3>  (103) 
0.7962962962962963

>  <Risk_Flags>  (103) 
none

$$$$
CAND_R2_104 | DOPO-HPM-OH-acetyl
     RDKit          2D

 53 60  0  0  0  0  0  0  0  0999 V2000
   15.0412   -0.1452    0.0000 C   0  0  0  0  0  0  0  0  0  0  0  0
   14.6784   -1.6007    0.0000 C   0  0  0  0  0  0  0  0  0  0  0  0
   15.7574   -2.6426    0.0000 O   0  0  0  0  0  0  0  0  0  0  0  0
   13.2365   -2.0141    0.0000 O   0  0  0  0  0  0  0  0  0  0  0  0
   12.8736   -3.4696    0.0000 C   0  0  0  0  0  0  0  0  0  0  0  0
   11.4317   -3.8830    0.0000 C   0  0  0  0  0  0  0  0  0  0  0  0
   10.3527   -2.8410    0.0000 O   0  0  0  0  0  0  0  0  0  0  0  0
    8.9108   -3.2545    0.0000 C   0  0  0  0  0  0  0  0  0  0  0  0
    7.8318   -2.2125    0.0000 C   0  0  0  0  0  0  0  0  0  0  0  0
    6.3899   -2.6259    0.0000 C   0  0  0  0  0  0  0  0  0  0  0  0
    6.0270   -4.0814    0.0000 C   0  0  0  0  0  0  0  0  0  0  0  0
    4.5851   -4.4948    0.0000 N   0  0  0  0  0  0  0  0  0  0  0  0
    4.0721   -5.9044    0.0000 C   0  0  0  0  0  0  0  0  0  0  0  0
    4.9109   -7.1479    0.0000 O   0  0  0  0  0  0  0  0  0  0  0  0
    2.5730   -5.8520    0.0000 C   0  0  0  0  0  0  0  0  0  0  0  0
    2.1595   -4.4101    0.0000 C   0  0  0  0  0  0  0  0  0  0  0  0
    0.7500   -3.8971    0.0000 P   0  0  0  0  0  0  0  0  0  0  0  0
    0.4895   -5.3743    0.0000 O   0  0  0  0  0  0  0  0  0  0  0  0
    1.5000   -2.5981    0.0000 O   0  0  0  0  0  0  0  0  0  0  0  0
    0.7500   -1.2990    0.0000 C   0  0  0  0  0  0  0  0  0  0  0  0
    1.5000    0.0000    0.0000 C   0  0  0  0  0  0  0  0  0  0  0  0
    0.7500    1.2990    0.0000 C   0  0  0  0  0  0  0  0  0  0  0  0
   -0.7500    1.2990    0.0000 C   0  0  0  0  0  0  0  0  0  0  0  0
   -1.5000    0.0000    0.0000 C   0  0  0  0  0  0  0  0  0  0  0  0
   -0.7500   -1.2990    0.0000 C   0  0  0  0  0  0  0  0  0  0  0  0
   -1.5000   -2.5981    0.0000 C   0  0  0  0  0  0  0  0  0  0  0  0
   -3.0000   -2.5981    0.0000 C   0  0  0  0  0  0  0  0  0  0  0  0
   -3.7500   -3.8971    0.0000 C   0  0  0  0  0  0  0  0  0  0  0  0
   -3.0000   -5.1962    0.0000 C   0  0  0  0  0  0  0  0  0  0  0  0
   -1.5000   -5.1962    0.0000 C   0  0  0  0  0  0  0  0  0  0  0  0
   -0.7500   -3.8971    0.0000 C   0  0  0  0  0  0  0  0  0  0  0  0
    3.4031   -3.5714    0.0000 C   0  0  0  0  0  0  0  0  0  0  0  0
    3.4554   -2.0723    0.0000 O   0  0  0  0  0  0  0  0  0  0  0  0
    7.1060   -5.1234    0.0000 C   0  0  0  0  0  0  0  0  0  0  0  0
    8.5479   -4.7099    0.0000 C   0  0  0  0  0  0  0  0  0  0  0  0
   13.9526   -4.5115    0.0000 C   0  0  0  0  0  0  0  0  0  0  0  0
   13.5897   -5.9670    0.0000 N   0  0  0  0  0  0  0  0  0  0  0  0
   12.1478   -6.3804    0.0000 C   0  0  0  0  0  0  0  0  0  0  0  0
   11.0688   -5.3385    0.0000 O   0  0  0  0  0  0  0  0  0  0  0  0
   11.7849   -7.8359    0.0000 N   0  0  0  0  0  0  0  0  0  0  0  0
   10.3430   -8.2493    0.0000 C   0  0  0  0  0  0  0  0  0  0  0  0
    9.9802   -9.7048    0.0000 C   0  0  0  0  0  0  0  0  0  0  0  0
   10.3936  -11.1467    0.0000 C   0  0  0  0  0  0  0  0  0  0  0  0
    8.9382  -10.7838    0.0000 O   0  0  0  0  0  0  0  0  0  0  0  0
   12.8639   -8.8779    0.0000 C   0  0  0  0  0  0  0  0  0  0  0  0
   12.5011  -10.3333    0.0000 O   0  0  0  0  0  0  0  0  0  0  0  0
   14.3058   -8.4644    0.0000 N   0  0  0  0  0  0  0  0  0  0  0  0
   15.3848   -9.5064    0.0000 C   0  0  0  0  0  0  0  0  0  0  0  0
   15.0220  -10.9618    0.0000 C   0  0  0  0  0  0  0  0  0  0  0  0
   15.4354  -12.4037    0.0000 C   0  0  0  0  0  0  0  0  0  0  0  0
   13.9800  -12.0409    0.0000 O   0  0  0  0  0  0  0  0  0  0  0  0
   14.6687   -7.0090    0.0000 C   0  0  0  0  0  0  0  0  0  0  0  0
   16.1106   -6.5955    0.0000 O   0  0  0  0  0  0  0  0  0  0  0  0
  1  2  1  0
  2  3  2  0
  2  4  1  0
  4  5  1  0
  5  6  1  0
  6  7  1  0
  7  8  1  0
  8  9  2  0
  9 10  1  0
 10 11  2  0
 11 12  1  0
 12 13  1  0
 13 14  2  0
 13 15  1  0
 15 16  1  0
 16 17  1  0
 17 18  2  0
 17 19  1  0
 19 20  1  0
 20 21  2  0
 21 22  1  0
 22 23  2  0
 23 24  1  0
 24 25  2  0
 25 26  1  0
 26 27  2  0
 27 28  1  0
 28 29  2  0
 29 30  1  0
 30 31  2  0
 16 32  1  0
 32 33  2  0
 11 34  1  0
 34 35  2  0
  5 36  1  0
 36 37  1  0
 37 38  1  0
 38 39  2  0
 38 40  1  0
 40 41  1  0
 41 42  1  0
 42 43  1  0
 43 44  1  0
 40 45  1  0
 45 46  2  0
 45 47  1  0
 47 48  1  0
 48 49  1  0
 49 50  1  0
 50 51  1  0
 47 52  1  0
 52 53  2  0
 35  8  1  0
 52 37  1  0
 32 12  1  0
 44 42  1  0
 51 49  1  0
 31 17  1  0
 25 20  1  0
 31 26  1  0
M  END
>  <Candidate_ID>  (104) 
CAND_R2_104

>  <Candidate_Name>  (104) 
DOPO-HPM-OH-acetyl

>  <Parent_Seed_ID>  (104) 
TRAIN_007

>  <Parent_Name>  (104) 
DOPO-HPM

>  <Transformation_Code>  (104) 
OH_acetyl

>  <Design_Family>  (104) 
P-N

>  <Preparation_Type>  (104) 
Additive

>  <Synthesis_Level>  (104) 
B

>  <Parent_Tanimoto_r3>  (104) 
0.7699115044247787

>  <Max_Train_Tanimoto_r3>  (104) 
0.7699115044247787

>  <Risk_Flags>  (104) 
none

$$$$
CAND_R2_105 | DOPO-HPM-OH-allyl
     RDKit          2D

 53 60  0  0  0  0  0  0  0  0999 V2000
   16.4831    0.2682    0.0000 C   0  0  0  0  0  0  0  0  0  0  0  0
   15.0412   -0.1452    0.0000 C   0  0  0  0  0  0  0  0  0  0  0  0
   14.6784   -1.6007    0.0000 C   0  0  0  0  0  0  0  0  0  0  0  0
   13.2365   -2.0141    0.0000 O   0  0  0  0  0  0  0  0  0  0  0  0
   12.8736   -3.4696    0.0000 C   0  0  0  0  0  0  0  0  0  0  0  0
   11.4317   -3.8830    0.0000 C   0  0  0  0  0  0  0  0  0  0  0  0
   10.3527   -2.8410    0.0000 O   0  0  0  0  0  0  0  0  0  0  0  0
    8.9108   -3.2545    0.0000 C   0  0  0  0  0  0  0  0  0  0  0  0
    7.8318   -2.2125    0.0000 C   0  0  0  0  0  0  0  0  0  0  0  0
    6.3899   -2.6259    0.0000 C   0  0  0  0  0  0  0  0  0  0  0  0
    6.0270   -4.0814    0.0000 C   0  0  0  0  0  0  0  0  0  0  0  0
    4.5851   -4.4948    0.0000 N   0  0  0  0  0  0  0  0  0  0  0  0
    4.0721   -5.9044    0.0000 C   0  0  0  0  0  0  0  0  0  0  0  0
    4.9109   -7.1479    0.0000 O   0  0  0  0  0  0  0  0  0  0  0  0
    2.5730   -5.8520    0.0000 C   0  0  0  0  0  0  0  0  0  0  0  0
    2.1595   -4.4101    0.0000 C   0  0  0  0  0  0  0  0  0  0  0  0
    0.7500   -3.8971    0.0000 P   0  0  0  0  0  0  0  0  0  0  0  0
    0.4895   -5.3743    0.0000 O   0  0  0  0  0  0  0  0  0  0  0  0
    1.5000   -2.5981    0.0000 O   0  0  0  0  0  0  0  0  0  0  0  0
    0.7500   -1.2990    0.0000 C   0  0  0  0  0  0  0  0  0  0  0  0
    1.5000    0.0000    0.0000 C   0  0  0  0  0  0  0  0  0  0  0  0
    0.7500    1.2990    0.0000 C   0  0  0  0  0  0  0  0  0  0  0  0
   -0.7500    1.2990    0.0000 C   0  0  0  0  0  0  0  0  0  0  0  0
   -1.5000    0.0000    0.0000 C   0  0  0  0  0  0  0  0  0  0  0  0
   -0.7500   -1.2990    0.0000 C   0  0  0  0  0  0  0  0  0  0  0  0
   -1.5000   -2.5981    0.0000 C   0  0  0  0  0  0  0  0  0  0  0  0
   -3.0000   -2.5981    0.0000 C   0  0  0  0  0  0  0  0  0  0  0  0
   -3.7500   -3.8971    0.0000 C   0  0  0  0  0  0  0  0  0  0  0  0
   -3.0000   -5.1962    0.0000 C   0  0  0  0  0  0  0  0  0  0  0  0
   -1.5000   -5.1962    0.0000 C   0  0  0  0  0  0  0  0  0  0  0  0
   -0.7500   -3.8971    0.0000 C   0  0  0  0  0  0  0  0  0  0  0  0
    3.4031   -3.5714    0.0000 C   0  0  0  0  0  0  0  0  0  0  0  0
    3.4554   -2.0723    0.0000 O   0  0  0  0  0  0  0  0  0  0  0  0
    7.1060   -5.1234    0.0000 C   0  0  0  0  0  0  0  0  0  0  0  0
    8.5479   -4.7099    0.0000 C   0  0  0  0  0  0  0  0  0  0  0  0
   13.9526   -4.5115    0.0000 C   0  0  0  0  0  0  0  0  0  0  0  0
   13.5897   -5.9670    0.0000 N   0  0  0  0  0  0  0  0  0  0  0  0
   12.1478   -6.3804    0.0000 C   0  0  0  0  0  0  0  0  0  0  0  0
   11.0688   -5.3385    0.0000 O   0  0  0  0  0  0  0  0  0  0  0  0
   11.7849   -7.8359    0.0000 N   0  0  0  0  0  0  0  0  0  0  0  0
   10.3430   -8.2493    0.0000 C   0  0  0  0  0  0  0  0  0  0  0  0
    9.9802   -9.7048    0.0000 C   0  0  0  0  0  0  0  0  0  0  0  0
   10.3936  -11.1467    0.0000 C   0  0  0  0  0  0  0  0  0  0  0  0
    8.9382  -10.7838    0.0000 O   0  0  0  0  0  0  0  0  0  0  0  0
   12.8639   -8.8779    0.0000 C   0  0  0  0  0  0  0  0  0  0  0  0
   12.5011  -10.3333    0.0000 O   0  0  0  0  0  0  0  0  0  0  0  0
   14.3058   -8.4644    0.0000 N   0  0  0  0  0  0  0  0  0  0  0  0
   15.3848   -9.5064    0.0000 C   0  0  0  0  0  0  0  0  0  0  0  0
   15.0220  -10.9618    0.0000 C   0  0  0  0  0  0  0  0  0  0  0  0
   15.4354  -12.4037    0.0000 C   0  0  0  0  0  0  0  0  0  0  0  0
   13.9800  -12.0409    0.0000 O   0  0  0  0  0  0  0  0  0  0  0  0
   14.6687   -7.0090    0.0000 C   0  0  0  0  0  0  0  0  0  0  0  0
   16.1106   -6.5955    0.0000 O   0  0  0  0  0  0  0  0  0  0  0  0
  1  2  2  0
  2  3  1  0
  3  4  1  0
  4  5  1  0
  5  6  1  0
  6  7  1  0
  7  8  1  0
  8  9  2  0
  9 10  1  0
 10 11  2  0
 11 12  1  0
 12 13  1  0
 13 14  2  0
 13 15  1  0
 15 16  1  0
 16 17  1  0
 17 18  2  0
 17 19  1  0
 19 20  1  0
 20 21  2  0
 21 22  1  0
 22 23  2  0
 23 24  1  0
 24 25  2  0
 25 26  1  0
 26 27  2  0
 27 28  1  0
 28 29  2  0
 29 30  1  0
 30 31  2  0
 16 32  1  0
 32 33  2  0
 11 34  1  0
 34 35  2  0
  5 36  1  0
 36 37  1  0
 37 38  1  0
 38 39  2  0
 38 40  1  0
 40 41  1  0
 41 42  1  0
 42 43  1  0
 43 44  1  0
 40 45  1  0
 45 46  2  0
 45 47  1  0
 47 48  1  0
 48 49  1  0
 49 50  1  0
 50 51  1  0
 47 52  1  0
 52 53  2  0
 35  8  1  0
 52 37  1  0
 32 12  1  0
 44 42  1  0
 51 49  1  0
 31 17  1  0
 25 20  1  0
 31 26  1  0
M  END
>  <Candidate_ID>  (105) 
CAND_R2_105

>  <Candidate_Name>  (105) 
DOPO-HPM-OH-allyl

>  <Parent_Seed_ID>  (105) 
TRAIN_007

>  <Parent_Name>  (105) 
DOPO-HPM

>  <Transformation_Code>  (105) 
OH_allyl

>  <Design_Family>  (105) 
P-N

>  <Preparation_Type>  (105) 
Additive

>  <Synthesis_Level>  (105) 
B

>  <Parent_Tanimoto_r3>  (105) 
0.7478260869565218

>  <Max_Train_Tanimoto_r3>  (105) 
0.7478260869565218

>  <Risk_Flags>  (105) 
none

$$$$
CAND_R2_106 | DOPT-amino
     RDKit          2D

 27 30  0  0  0  0  0  0  0  0999 V2000
    3.4619  -11.7962    0.0000 C   0  0  0  0  0  0  0  0  0  0  0  0
    3.2014  -10.3190    0.0000 C   0  0  0  0  0  0  0  0  0  0  0  0
    1.7919   -9.8060    0.0000 C   0  0  0  0  0  0  0  0  0  0  0  0
    1.5314   -8.3287    0.0000 C   0  0  0  0  0  0  0  0  0  0  0  0
    2.6805   -7.3646    0.0000 C   0  0  0  0  0  0  0  0  0  0  0  0
    2.4200   -5.8874    0.0000 S   0  0  0  0  0  0  0  0  0  0  0  0
    0.9856   -6.3260    0.0000 O   0  0  0  0  0  0  0  0  0  0  0  0
    3.8972   -5.6269    0.0000 O   0  0  0  0  0  0  0  0  0  0  0  0
    2.1595   -4.4101    0.0000 N   0  0  0  0  0  0  0  0  0  0  0  0
    0.7500   -3.8971    0.0000 P   0  0  0  0  0  0  0  0  0  0  0  0
    0.3114   -5.3316    0.0000 O   0  0  0  0  0  0  0  0  0  0  0  0
    1.5000   -2.5981    0.0000 O   0  0  0  0  0  0  0  0  0  0  0  0
    0.7500   -1.2990    0.0000 C   0  0  0  0  0  0  0  0  0  0  0  0
    1.5000    0.0000    0.0000 C   0  0  0  0  0  0  0  0  0  0  0  0
    0.7500    1.2990    0.0000 C   0  0  0  0  0  0  0  0  0  0  0  0
   -0.7500    1.2990    0.0000 C   0  0  0  0  0  0  0  0  0  0  0  0
   -1.5000    0.0000    0.0000 C   0  0  0  0  0  0  0  0  0  0  0  0
   -0.7500   -1.2990    0.0000 C   0  0  0  0  0  0  0  0  0  0  0  0
   -1.5000   -2.5981    0.0000 C   0  0  0  0  0  0  0  0  0  0  0  0
   -3.0000   -2.5981    0.0000 C   0  0  0  0  0  0  0  0  0  0  0  0
   -3.7500   -3.8971    0.0000 C   0  0  0  0  0  0  0  0  0  0  0  0
   -3.0000   -5.1962    0.0000 C   0  0  0  0  0  0  0  0  0  0  0  0
   -1.5000   -5.1962    0.0000 C   0  0  0  0  0  0  0  0  0  0  0  0
   -0.7500   -3.8971    0.0000 C   0  0  0  0  0  0  0  0  0  0  0  0
    4.0900   -7.8776    0.0000 C   0  0  0  0  0  0  0  0  0  0  0  0
    4.3505   -9.3548    0.0000 C   0  0  0  0  0  0  0  0  0  0  0  0
    5.7600   -9.8678    0.0000 N   0  0  0  0  0  0  0  0  0  0  0  0
  1  2  1  0
  2  3  2  0
  3  4  1  0
  4  5  2  0
  5  6  1  0
  6  7  2  0
  6  8  2  0
  6  9  1  0
  9 10  1  0
 10 11  2  0
 10 12  1  0
 12 13  1  0
 13 14  2  0
 14 15  1  0
 15 16  2  0
 16 17  1  0
 17 18  2  0
 18 19  1  0
 19 20  2  0
 20 21  1  0
 21 22  2  0
 22 23  1  0
 23 24  2  0
  5 25  1  0
 25 26  2  0
 26 27  1  0
 26  2  1  0
 24 10  1  0
 18 13  1  0
 24 19  1  0
M  END
>  <Candidate_ID>  (106) 
CAND_R2_106

>  <Candidate_Name>  (106) 
DOPT-amino

>  <Parent_Seed_ID>  (106) 
TRAIN_090

>  <Parent_Name>  (106) 
DOPT

>  <Transformation_Code>  (106) 
amino

>  <Design_Family>  (106) 
P-N-S

>  <Preparation_Type>  (106) 
Co-curing

>  <Synthesis_Level>  (106) 
B

>  <Parent_Tanimoto_r3>  (106) 
0.6527777777777778

>  <Max_Train_Tanimoto_r3>  (106) 
0.6527777777777778

>  <Risk_Flags>  (106) 
candidate may be outside strict in-domain threshold

$$$$
CAND_R2_107 | DOPT-hydroxy
     RDKit          2D

 27 30  0  0  0  0  0  0  0  0999 V2000
    3.4619  -11.7962    0.0000 C   0  0  0  0  0  0  0  0  0  0  0  0
    3.2014  -10.3190    0.0000 C   0  0  0  0  0  0  0  0  0  0  0  0
    1.7919   -9.8060    0.0000 C   0  0  0  0  0  0  0  0  0  0  0  0
    1.5314   -8.3287    0.0000 C   0  0  0  0  0  0  0  0  0  0  0  0
    2.6805   -7.3646    0.0000 C   0  0  0  0  0  0  0  0  0  0  0  0
    2.4200   -5.8874    0.0000 S   0  0  0  0  0  0  0  0  0  0  0  0
    0.9856   -6.3260    0.0000 O   0  0  0  0  0  0  0  0  0  0  0  0
    3.8972   -5.6269    0.0000 O   0  0  0  0  0  0  0  0  0  0  0  0
    2.1595   -4.4101    0.0000 N   0  0  0  0  0  0  0  0  0  0  0  0
    0.7500   -3.8971    0.0000 P   0  0  0  0  0  0  0  0  0  0  0  0
    0.3114   -5.3316    0.0000 O   0  0  0  0  0  0  0  0  0  0  0  0
    1.5000   -2.5981    0.0000 O   0  0  0  0  0  0  0  0  0  0  0  0
    0.7500   -1.2990    0.0000 C   0  0  0  0  0  0  0  0  0  0  0  0
    1.5000    0.0000    0.0000 C   0  0  0  0  0  0  0  0  0  0  0  0
    0.7500    1.2990    0.0000 C   0  0  0  0  0  0  0  0  0  0  0  0
   -0.7500    1.2990    0.0000 C   0  0  0  0  0  0  0  0  0  0  0  0
   -1.5000    0.0000    0.0000 C   0  0  0  0  0  0  0  0  0  0  0  0
   -0.7500   -1.2990    0.0000 C   0  0  0  0  0  0  0  0  0  0  0  0
   -1.5000   -2.5981    0.0000 C   0  0  0  0  0  0  0  0  0  0  0  0
   -3.0000   -2.5981    0.0000 C   0  0  0  0  0  0  0  0  0  0  0  0
   -3.7500   -3.8971    0.0000 C   0  0  0  0  0  0  0  0  0  0  0  0
   -3.0000   -5.1962    0.0000 C   0  0  0  0  0  0  0  0  0  0  0  0
   -1.5000   -5.1962    0.0000 C   0  0  0  0  0  0  0  0  0  0  0  0
   -0.7500   -3.8971    0.0000 C   0  0  0  0  0  0  0  0  0  0  0  0
    4.0900   -7.8776    0.0000 C   0  0  0  0  0  0  0  0  0  0  0  0
    4.3505   -9.3548    0.0000 C   0  0  0  0  0  0  0  0  0  0  0  0
    5.7600   -9.8678    0.0000 O   0  0  0  0  0  0  0  0  0  0  0  0
  1  2  1  0
  2  3  2  0
  3  4  1  0
  4  5  2  0
  5  6  1  0
  6  7  2  0
  6  8  2  0
  6  9  1  0
  9 10  1  0
 10 11  2  0
 10 12  1  0
 12 13  1  0
 13 14  2  0
 14 15  1  0
 15 16  2  0
 16 17  1  0
 17 18  2  0
 18 19  1  0
 19 20  2  0
 20 21  1  0
 21 22  2  0
 22 23  1  0
 23 24  2  0
  5 25  1  0
 25 26  2  0
 26 27  1  0
 26  2  1  0
 24 10  1  0
 18 13  1  0
 24 19  1  0
M  END
>  <Candidate_ID>  (107) 
CAND_R2_107

>  <Candidate_Name>  (107) 
DOPT-hydroxy

>  <Parent_Seed_ID>  (107) 
TRAIN_090

>  <Parent_Name>  (107) 
DOPT

>  <Transformation_Code>  (107) 
hydroxy

>  <Design_Family>  (107) 
P-N-S

>  <Preparation_Type>  (107) 
Additive

>  <Synthesis_Level>  (107) 
B

>  <Parent_Tanimoto_r3>  (107) 
0.6527777777777778

>  <Max_Train_Tanimoto_r3>  (107) 
0.6527777777777778

>  <Risk_Flags>  (107) 
candidate may be outside strict in-domain threshold

$$$$
CAND_R2_108 | DOPT-hydroxymethyl
     RDKit          2D

 28 31  0  0  0  0  0  0  0  0999 V2000
    3.4619  -11.7962    0.0000 C   0  0  0  0  0  0  0  0  0  0  0  0
    3.2014  -10.3190    0.0000 C   0  0  0  0  0  0  0  0  0  0  0  0
    1.7919   -9.8060    0.0000 C   0  0  0  0  0  0  0  0  0  0  0  0
    1.5314   -8.3287    0.0000 C   0  0  0  0  0  0  0  0  0  0  0  0
    2.6805   -7.3646    0.0000 C   0  0  0  0  0  0  0  0  0  0  0  0
    2.4200   -5.8874    0.0000 S   0  0  0  0  0  0  0  0  0  0  0  0
    0.9856   -6.3260    0.0000 O   0  0  0  0  0  0  0  0  0  0  0  0
    3.8972   -5.6269    0.0000 O   0  0  0  0  0  0  0  0  0  0  0  0
    2.1595   -4.4101    0.0000 N   0  0  0  0  0  0  0  0  0  0  0  0
    0.7500   -3.8971    0.0000 P   0  0  0  0  0  0  0  0  0  0  0  0
    0.3114   -5.3316    0.0000 O   0  0  0  0  0  0  0  0  0  0  0  0
    1.5000   -2.5981    0.0000 O   0  0  0  0  0  0  0  0  0  0  0  0
    0.7500   -1.2990    0.0000 C   0  0  0  0  0  0  0  0  0  0  0  0
    1.5000    0.0000    0.0000 C   0  0  0  0  0  0  0  0  0  0  0  0
    0.7500    1.2990    0.0000 C   0  0  0  0  0  0  0  0  0  0  0  0
   -0.7500    1.2990    0.0000 C   0  0  0  0  0  0  0  0  0  0  0  0
   -1.5000    0.0000    0.0000 C   0  0  0  0  0  0  0  0  0  0  0  0
   -0.7500   -1.2990    0.0000 C   0  0  0  0  0  0  0  0  0  0  0  0
   -1.5000   -2.5981    0.0000 C   0  0  0  0  0  0  0  0  0  0  0  0
   -3.0000   -2.5981    0.0000 C   0  0  0  0  0  0  0  0  0  0  0  0
   -3.7500   -3.8971    0.0000 C   0  0  0  0  0  0  0  0  0  0  0  0
   -3.0000   -5.1962    0.0000 C   0  0  0  0  0  0  0  0  0  0  0  0
   -1.5000   -5.1962    0.0000 C   0  0  0  0  0  0  0  0  0  0  0  0
   -0.7500   -3.8971    0.0000 C   0  0  0  0  0  0  0  0  0  0  0  0
    4.0900   -7.8776    0.0000 C   0  0  0  0  0  0  0  0  0  0  0  0
    4.3505   -9.3548    0.0000 C   0  0  0  0  0  0  0  0  0  0  0  0
    5.7600   -9.8678    0.0000 C   0  0  0  0  0  0  0  0  0  0  0  0
    6.9091   -8.9037    0.0000 O   0  0  0  0  0  0  0  0  0  0  0  0
  1  2  1  0
  2  3  2  0
  3  4  1  0
  4  5  2  0
  5  6  1  0
  6  7  2  0
  6  8  2  0
  6  9  1  0
  9 10  1  0
 10 11  2  0
 10 12  1  0
 12 13  1  0
 13 14  2  0
 14 15  1  0
 15 16  2  0
 16 17  1  0
 17 18  2  0
 18 19  1  0
 19 20  2  0
 20 21  1  0
 21 22  2  0
 22 23  1  0
 23 24  2  0
  5 25  1  0
 25 26  2  0
 26 27  1  0
 27 28  1  0
 26  2  1  0
 24 10  1  0
 18 13  1  0
 24 19  1  0
M  END
>  <Candidate_ID>  (108) 
CAND_R2_108

>  <Candidate_Name>  (108) 
DOPT-hydroxymethyl

>  <Parent_Seed_ID>  (108) 
TRAIN_090

>  <Parent_Name>  (108) 
DOPT

>  <Transformation_Code>  (108) 
hydroxymethyl

>  <Design_Family>  (108) 
P-N-S

>  <Preparation_Type>  (108) 
Additive

>  <Synthesis_Level>  (108) 
B

>  <Parent_Tanimoto_r3>  (108) 
0.618421052631579

>  <Max_Train_Tanimoto_r3>  (108) 
0.618421052631579

>  <Risk_Flags>  (108) 
large structural change from parent; candidate may be outside strict in-domain threshold

$$$$
CAND_R2_109 | DOPT-carboxamide
     RDKit          2D

 29 32  0  0  0  0  0  0  0  0999 V2000
    3.4619  -11.7962    0.0000 C   0  0  0  0  0  0  0  0  0  0  0  0
    3.2014  -10.3190    0.0000 C   0  0  0  0  0  0  0  0  0  0  0  0
    1.7919   -9.8060    0.0000 C   0  0  0  0  0  0  0  0  0  0  0  0
    1.5314   -8.3287    0.0000 C   0  0  0  0  0  0  0  0  0  0  0  0
    2.6805   -7.3646    0.0000 C   0  0  0  0  0  0  0  0  0  0  0  0
    2.4200   -5.8874    0.0000 S   0  0  0  0  0  0  0  0  0  0  0  0
    0.9856   -6.3260    0.0000 O   0  0  0  0  0  0  0  0  0  0  0  0
    3.8972   -5.6269    0.0000 O   0  0  0  0  0  0  0  0  0  0  0  0
    2.1595   -4.4101    0.0000 N   0  0  0  0  0  0  0  0  0  0  0  0
    0.7500   -3.8971    0.0000 P   0  0  0  0  0  0  0  0  0  0  0  0
    0.3114   -5.3316    0.0000 O   0  0  0  0  0  0  0  0  0  0  0  0
    1.5000   -2.5981    0.0000 O   0  0  0  0  0  0  0  0  0  0  0  0
    0.7500   -1.2990    0.0000 C   0  0  0  0  0  0  0  0  0  0  0  0
    1.5000    0.0000    0.0000 C   0  0  0  0  0  0  0  0  0  0  0  0
    0.7500    1.2990    0.0000 C   0  0  0  0  0  0  0  0  0  0  0  0
   -0.7500    1.2990    0.0000 C   0  0  0  0  0  0  0  0  0  0  0  0
   -1.5000    0.0000    0.0000 C   0  0  0  0  0  0  0  0  0  0  0  0
   -0.7500   -1.2990    0.0000 C   0  0  0  0  0  0  0  0  0  0  0  0
   -1.5000   -2.5981    0.0000 C   0  0  0  0  0  0  0  0  0  0  0  0
   -3.0000   -2.5981    0.0000 C   0  0  0  0  0  0  0  0  0  0  0  0
   -3.7500   -3.8971    0.0000 C   0  0  0  0  0  0  0  0  0  0  0  0
   -3.0000   -5.1962    0.0000 C   0  0  0  0  0  0  0  0  0  0  0  0
   -1.5000   -5.1962    0.0000 C   0  0  0  0  0  0  0  0  0  0  0  0
   -0.7500   -3.8971    0.0000 C   0  0  0  0  0  0  0  0  0  0  0  0
    4.0900   -7.8776    0.0000 C   0  0  0  0  0  0  0  0  0  0  0  0
    4.3505   -9.3548    0.0000 C   0  0  0  0  0  0  0  0  0  0  0  0
    5.7600   -9.8678    0.0000 C   0  0  0  0  0  0  0  0  0  0  0  0
    6.9091   -8.9037    0.0000 N   0  0  0  0  0  0  0  0  0  0  0  0
    6.0205  -11.3451    0.0000 O   0  0  0  0  0  0  0  0  0  0  0  0
  1  2  1  0
  2  3  2  0
  3  4  1  0
  4  5  2  0
  5  6  1  0
  6  7  2  0
  6  8  2  0
  6  9  1  0
  9 10  1  0
 10 11  2  0
 10 12  1  0
 12 13  1  0
 13 14  2  0
 14 15  1  0
 15 16  2  0
 16 17  1  0
 17 18  2  0
 18 19  1  0
 19 20  2  0
 20 21  1  0
 21 22  2  0
 22 23  1  0
 23 24  2  0
  5 25  1  0
 25 26  2  0
 26 27  1  0
 27 28  1  0
 27 29  2  0
 26  2  1  0
 24 10  1  0
 18 13  1  0
 24 19  1  0
M  END
>  <Candidate_ID>  (109) 
CAND_R2_109

>  <Candidate_Name>  (109) 
DOPT-carboxamide

>  <Parent_Seed_ID>  (109) 
TRAIN_090

>  <Parent_Name>  (109) 
DOPT

>  <Transformation_Code>  (109) 
carboxamide

>  <Design_Family>  (109) 
P-N-S

>  <Preparation_Type>  (109) 
Additive

>  <Synthesis_Level>  (109) 
B

>  <Parent_Tanimoto_r3>  (109) 
0.6103896103896104

>  <Max_Train_Tanimoto_r3>  (109) 
0.6103896103896104

>  <Risk_Flags>  (109) 
large structural change from parent; candidate may be outside strict in-domain threshold

$$$$
CAND_R2_110 | DOPT-boronic-acid
     RDKit          2D

 29 32  0  0  0  0  0  0  0  0999 V2000
    3.4619  -11.7962    0.0000 C   0  0  0  0  0  0  0  0  0  0  0  0
    3.2014  -10.3190    0.0000 C   0  0  0  0  0  0  0  0  0  0  0  0
    1.7919   -9.8060    0.0000 C   0  0  0  0  0  0  0  0  0  0  0  0
    1.5314   -8.3287    0.0000 C   0  0  0  0  0  0  0  0  0  0  0  0
    2.6805   -7.3646    0.0000 C   0  0  0  0  0  0  0  0  0  0  0  0
    2.4200   -5.8874    0.0000 S   0  0  0  0  0  0  0  0  0  0  0  0
    0.9856   -6.3260    0.0000 O   0  0  0  0  0  0  0  0  0  0  0  0
    3.8972   -5.6269    0.0000 O   0  0  0  0  0  0  0  0  0  0  0  0
    2.1595   -4.4101    0.0000 N   0  0  0  0  0  0  0  0  0  0  0  0
    0.7500   -3.8971    0.0000 P   0  0  0  0  0  0  0  0  0  0  0  0
    0.3114   -5.3316    0.0000 O   0  0  0  0  0  0  0  0  0  0  0  0
    1.5000   -2.5981    0.0000 O   0  0  0  0  0  0  0  0  0  0  0  0
    0.7500   -1.2990    0.0000 C   0  0  0  0  0  0  0  0  0  0  0  0
    1.5000    0.0000    0.0000 C   0  0  0  0  0  0  0  0  0  0  0  0
    0.7500    1.2990    0.0000 C   0  0  0  0  0  0  0  0  0  0  0  0
   -0.7500    1.2990    0.0000 C   0  0  0  0  0  0  0  0  0  0  0  0
   -1.5000    0.0000    0.0000 C   0  0  0  0  0  0  0  0  0  0  0  0
   -0.7500   -1.2990    0.0000 C   0  0  0  0  0  0  0  0  0  0  0  0
   -1.5000   -2.5981    0.0000 C   0  0  0  0  0  0  0  0  0  0  0  0
   -3.0000   -2.5981    0.0000 C   0  0  0  0  0  0  0  0  0  0  0  0
   -3.7500   -3.8971    0.0000 C   0  0  0  0  0  0  0  0  0  0  0  0
   -3.0000   -5.1962    0.0000 C   0  0  0  0  0  0  0  0  0  0  0  0
   -1.5000   -5.1962    0.0000 C   0  0  0  0  0  0  0  0  0  0  0  0
   -0.7500   -3.8971    0.0000 C   0  0  0  0  0  0  0  0  0  0  0  0
    4.0900   -7.8776    0.0000 C   0  0  0  0  0  0  0  0  0  0  0  0
    4.3505   -9.3548    0.0000 C   0  0  0  0  0  0  0  0  0  0  0  0
    5.7600   -9.8678    0.0000 B   0  0  0  0  0  0  0  0  0  0  0  0
    6.9091   -8.9037    0.0000 O   0  0  0  0  0  0  0  0  0  0  0  0
    6.0205  -11.3451    0.0000 O   0  0  0  0  0  0  0  0  0  0  0  0
  1  2  1  0
  2  3  2  0
  3  4  1  0
  4  5  2  0
  5  6  1  0
  6  7  2  0
  6  8  2  0
  6  9  1  0
  9 10  1  0
 10 11  2  0
 10 12  1  0
 12 13  1  0
 13 14  2  0
 14 15  1  0
 15 16  2  0
 16 17  1  0
 17 18  2  0
 18 19  1  0
 19 20  2  0
 20 21  1  0
 21 22  2  0
 22 23  1  0
 23 24  2  0
  5 25  1  0
 25 26  2  0
 26 27  1  0
 27 28  1  0
 27 29  1  0
 26  2  1  0
 24 10  1  0
 18 13  1  0
 24 19  1  0
M  END
>  <Candidate_ID>  (110) 
CAND_R2_110

>  <Candidate_Name>  (110) 
DOPT-boronic-acid

>  <Parent_Seed_ID>  (110) 
TRAIN_090

>  <Parent_Name>  (110) 
DOPT

>  <Transformation_Code>  (110) 
boronic_acid

>  <Design_Family>  (110) 
P-N-B-S

>  <Preparation_Type>  (110) 
Additive

>  <Synthesis_Level>  (110) 
B

>  <Parent_Tanimoto_r3>  (110) 
0.6351351351351351

>  <Max_Train_Tanimoto_r3>  (110) 
0.6351351351351351

>  <Risk_Flags>  (110) 
large structural change from parent; candidate may be outside strict in-domain threshold

$$$$
CAND_R2_111 | DOPT-pinacol-boronate
     RDKit          2D

 35 39  0  0  0  0  0  0  0  0999 V2000
    3.4619  -11.7962    0.0000 C   0  0  0  0  0  0  0  0  0  0  0  0
    3.2014  -10.3190    0.0000 C   0  0  0  0  0  0  0  0  0  0  0  0
    1.7919   -9.8060    0.0000 C   0  0  0  0  0  0  0  0  0  0  0  0
    1.5314   -8.3287    0.0000 C   0  0  0  0  0  0  0  0  0  0  0  0
    2.6805   -7.3646    0.0000 C   0  0  0  0  0  0  0  0  0  0  0  0
    2.4200   -5.8874    0.0000 S   0  0  0  0  0  0  0  0  0  0  0  0
    0.9856   -6.3260    0.0000 O   0  0  0  0  0  0  0  0  0  0  0  0
    3.8972   -5.6269    0.0000 O   0  0  0  0  0  0  0  0  0  0  0  0
    2.1595   -4.4101    0.0000 N   0  0  0  0  0  0  0  0  0  0  0  0
    0.7500   -3.8971    0.0000 P   0  0  0  0  0  0  0  0  0  0  0  0
    0.3114   -5.3316    0.0000 O   0  0  0  0  0  0  0  0  0  0  0  0
    1.5000   -2.5981    0.0000 O   0  0  0  0  0  0  0  0  0  0  0  0
    0.7500   -1.2990    0.0000 C   0  0  0  0  0  0  0  0  0  0  0  0
    1.5000    0.0000    0.0000 C   0  0  0  0  0  0  0  0  0  0  0  0
    0.7500    1.2990    0.0000 C   0  0  0  0  0  0  0  0  0  0  0  0
   -0.7500    1.2990    0.0000 C   0  0  0  0  0  0  0  0  0  0  0  0
   -1.5000    0.0000    0.0000 C   0  0  0  0  0  0  0  0  0  0  0  0
   -0.7500   -1.2990    0.0000 C   0  0  0  0  0  0  0  0  0  0  0  0
   -1.5000   -2.5981    0.0000 C   0  0  0  0  0  0  0  0  0  0  0  0
   -3.0000   -2.5981    0.0000 C   0  0  0  0  0  0  0  0  0  0  0  0
   -3.7500   -3.8971    0.0000 C   0  0  0  0  0  0  0  0  0  0  0  0
   -3.0000   -5.1962    0.0000 C   0  0  0  0  0  0  0  0  0  0  0  0
   -1.5000   -5.1962    0.0000 C   0  0  0  0  0  0  0  0  0  0  0  0
   -0.7500   -3.8971    0.0000 C   0  0  0  0  0  0  0  0  0  0  0  0
    4.0900   -7.8776    0.0000 C   0  0  0  0  0  0  0  0  0  0  0  0
    4.3505   -9.3548    0.0000 C   0  0  0  0  0  0  0  0  0  0  0  0
    5.7600   -9.8678    0.0000 B   0  0  0  0  0  0  0  0  0  0  0  0
    7.0036   -9.0291    0.0000 O   0  0  0  0  0  0  0  0  0  0  0  0
    8.1856   -9.9525    0.0000 C   0  0  0  0  0  0  0  0  0  0  0  0
    8.9805   -8.6805    0.0000 C   0  0  0  0  0  0  0  0  0  0  0  0
    9.5338  -10.6101    0.0000 C   0  0  0  0  0  0  0  0  0  0  0  0
    7.6726  -11.3621    0.0000 C   0  0  0  0  0  0  0  0  0  0  0  0
    9.1280  -11.7250    0.0000 C   0  0  0  0  0  0  0  0  0  0  0  0
    7.4638  -12.8475    0.0000 C   0  0  0  0  0  0  0  0  0  0  0  0
    6.1735  -11.3097    0.0000 O   0  0  0  0  0  0  0  0  0  0  0  0
  1  2  1  0
  2  3  2  0
  3  4  1  0
  4  5  2  0
  5  6  1  0
  6  7  2  0
  6  8  2  0
  6  9  1  0
  9 10  1  0
 10 11  2  0
 10 12  1  0
 12 13  1  0
 13 14  2  0
 14 15  1  0
 15 16  2  0
 16 17  1  0
 17 18  2  0
 18 19  1  0
 19 20  2  0
 20 21  1  0
 21 22  2  0
 22 23  1  0
 23 24  2  0
  5 25  1  0
 25 26  2  0
 26 27  1  0
 27 28  1  0
 28 29  1  0
 29 30  1  0
 29 31  1  0
 29 32  1  0
 32 33  1  0
 32 34  1  0
 32 35  1  0
 26  2  1  0
 35 27  1  0
 24 10  1  0
 18 13  1  0
 24 19  1  0
M  END
>  <Candidate_ID>  (111) 
CAND_R2_111

>  <Candidate_Name>  (111) 
DOPT-pinacol-boronate

>  <Parent_Seed_ID>  (111) 
TRAIN_090

>  <Parent_Name>  (111) 
DOPT

>  <Transformation_Code>  (111) 
pinacol_boronate

>  <Design_Family>  (111) 
P-N-B-S

>  <Preparation_Type>  (111) 
Additive

>  <Synthesis_Level>  (111) 
B

>  <Parent_Tanimoto_r3>  (111) 
0.5925925925925926

>  <Max_Train_Tanimoto_r3>  (111) 
0.5925925925925926

>  <Risk_Flags>  (111) 
large structural change from parent; candidate may be outside strict in-domain threshold

$$$$
CAND_R2_112 | DOPT-trimethoxysilyl
     RDKit          2D

 33 36  0  0  0  0  0  0  0  0999 V2000
   -0.2458  -13.2115    0.0000 C   0  0  0  0  0  0  0  0  0  0  0  0
   -0.5062  -11.7343    0.0000 O   0  0  0  0  0  0  0  0  0  0  0  0
    0.6428  -10.7701    0.0000 Si  0  0  0  0  0  4  0  0  0  0  0  0
   -0.3214   -9.6211    0.0000 O   0  0  0  0  0  0  0  0  0  0  0  0
   -1.7986   -9.8815    0.0000 C   0  0  0  0  0  0  0  0  0  0  0  0
    1.6070  -11.9192    0.0000 O   0  0  0  0  0  0  0  0  0  0  0  0
    1.0940  -13.3287    0.0000 C   0  0  0  0  0  0  0  0  0  0  0  0
    1.7919   -9.8060    0.0000 C   0  0  0  0  0  0  0  0  0  0  0  0
    1.5314   -8.3287    0.0000 C   0  0  0  0  0  0  0  0  0  0  0  0
    2.6805   -7.3646    0.0000 C   0  0  0  0  0  0  0  0  0  0  0  0
    2.4200   -5.8874    0.0000 S   0  0  0  0  0  0  0  0  0  0  0  0
    0.9428   -6.1478    0.0000 O   0  0  0  0  0  0  0  0  0  0  0  0
    3.9180   -5.8089    0.0000 O   0  0  0  0  0  0  0  0  0  0  0  0
    2.1595   -4.4101    0.0000 N   0  0  0  0  0  0  0  0  0  0  0  0
    3.3086   -3.4460    0.0000 P   0  0  0  0  0  0  0  0  0  0  0  0
    4.2114   -4.6439    0.0000 O   0  0  0  0  0  0  0  0  0  0  0  0
    2.1595   -2.4818    0.0000 O   0  0  0  0  0  0  0  0  0  0  0  0
    2.4200   -1.0046    0.0000 C   0  0  0  0  0  0  0  0  0  0  0  0
    1.2709   -0.0404    0.0000 C   0  0  0  0  0  0  0  0  0  0  0  0
    1.5314    1.4368    0.0000 C   0  0  0  0  0  0  0  0  0  0  0  0
    2.9410    1.9499    0.0000 C   0  0  0  0  0  0  0  0  0  0  0  0
    4.0900    0.9857    0.0000 C   0  0  0  0  0  0  0  0  0  0  0  0
    3.8296   -0.4915    0.0000 C   0  0  0  0  0  0  0  0  0  0  0  0
    4.9786   -1.4557    0.0000 C   0  0  0  0  0  0  0  0  0  0  0  0
    6.3882   -0.9427    0.0000 C   0  0  0  0  0  0  0  0  0  0  0  0
    7.5372   -1.9069    0.0000 C   0  0  0  0  0  0  0  0  0  0  0  0
    7.2768   -3.3841    0.0000 C   0  0  0  0  0  0  0  0  0  0  0  0
    5.8672   -3.8971    0.0000 C   0  0  0  0  0  0  0  0  0  0  0  0
    4.7181   -2.9329    0.0000 C   0  0  0  0  0  0  0  0  0  0  0  0
    4.0900   -7.8776    0.0000 C   0  0  0  0  0  0  0  0  0  0  0  0
    4.3505   -9.3548    0.0000 C   0  0  0  0  0  0  0  0  0  0  0  0
    3.2014  -10.3190    0.0000 C   0  0  0  0  0  0  0  0  0  0  0  0
    3.4619  -11.7962    0.0000 C   0  0  0  0  0  0  0  0  0  0  0  0
  1  2  1  0
  2  3  1  0
  3  4  1  0
  4  5  1  0
  3  6  1  0
  6  7  1  0
  3  8  1  0
  8  9  2  0
  9 10  1  0
 10 11  1  0
 11 12  2  0
 11 13  2  0
 11 14  1  0
 14 15  1  0
 15 16  2  0
 15 17  1  0
 17 18  1  0
 18 19  2  0
 19 20  1  0
 20 21  2  0
 21 22  1  0
 22 23  2  0
 23 24  1  0
 24 25  2  0
 25 26  1  0
 26 27  2  0
 27 28  1  0
 28 29  2  0
 10 30  2  0
 30 31  1  0
 31 32  2  0
 32 33  1  0
 32  8  1  0
 29 15  1  0
 23 18  1  0
 29 24  1  0
M  END
>  <Candidate_ID>  (112) 
CAND_R2_112

>  <Candidate_Name>  (112) 
DOPT-trimethoxysilyl

>  <Parent_Seed_ID>  (112) 
TRAIN_090

>  <Parent_Name>  (112) 
DOPT

>  <Transformation_Code>  (112) 
trimethoxysilyl

>  <Design_Family>  (112) 
P-N-Si-S

>  <Preparation_Type>  (112) 
Additive + Secondary Crosslinking

>  <Synthesis_Level>  (112) 
B

>  <Parent_Tanimoto_r3>  (112) 
0.5949367088607594

>  <Max_Train_Tanimoto_r3>  (112) 
0.5949367088607594

>  <Risk_Flags>  (112) 
large structural change from parent; candidate may be outside strict in-domain threshold

$$$$
CAND_R2_113 | DOPT-triethoxysilyl
     RDKit          2D

 36 39  0  0  0  0  0  0  0  0999 V2000
   -1.3948  -14.1757    0.0000 C   0  0  0  0  0  0  0  0  0  0  0  0
   -0.2458  -13.2115    0.0000 C   0  0  0  0  0  0  0  0  0  0  0  0
   -0.5062  -11.7343    0.0000 O   0  0  0  0  0  0  0  0  0  0  0  0
    0.6428  -10.7701    0.0000 Si  0  0  0  0  0  4  0  0  0  0  0  0
   -0.3214   -9.6211    0.0000 O   0  0  0  0  0  0  0  0  0  0  0  0
   -1.7986   -9.8815    0.0000 C   0  0  0  0  0  0  0  0  0  0  0  0
   -2.7628   -8.7325    0.0000 C   0  0  0  0  0  0  0  0  0  0  0  0
    1.6070  -11.9192    0.0000 O   0  0  0  0  0  0  0  0  0  0  0  0
    1.0940  -13.3287    0.0000 C   0  0  0  0  0  0  0  0  0  0  0  0
    2.0582  -14.4778    0.0000 C   0  0  0  0  0  0  0  0  0  0  0  0
    1.7919   -9.8060    0.0000 C   0  0  0  0  0  0  0  0  0  0  0  0
    1.5314   -8.3287    0.0000 C   0  0  0  0  0  0  0  0  0  0  0  0
    2.6805   -7.3646    0.0000 C   0  0  0  0  0  0  0  0  0  0  0  0
    2.4200   -5.8874    0.0000 S   0  0  0  0  0  0  0  0  0  0  0  0
    0.9428   -6.1478    0.0000 O   0  0  0  0  0  0  0  0  0  0  0  0
    3.9180   -5.8089    0.0000 O   0  0  0  0  0  0  0  0  0  0  0  0
    2.1595   -4.4101    0.0000 N   0  0  0  0  0  0  0  0  0  0  0  0
    3.3086   -3.4460    0.0000 P   0  0  0  0  0  0  0  0  0  0  0  0
    4.2114   -4.6439    0.0000 O   0  0  0  0  0  0  0  0  0  0  0  0
    2.1595   -2.4818    0.0000 O   0  0  0  0  0  0  0  0  0  0  0  0
    2.4200   -1.0046    0.0000 C   0  0  0  0  0  0  0  0  0  0  0  0
    1.2709   -0.0404    0.0000 C   0  0  0  0  0  0  0  0  0  0  0  0
    1.5314    1.4368    0.0000 C   0  0  0  0  0  0  0  0  0  0  0  0
    2.9410    1.9499    0.0000 C   0  0  0  0  0  0  0  0  0  0  0  0
    4.0900    0.9857    0.0000 C   0  0  0  0  0  0  0  0  0  0  0  0
    3.8296   -0.4915    0.0000 C   0  0  0  0  0  0  0  0  0  0  0  0
    4.9786   -1.4557    0.0000 C   0  0  0  0  0  0  0  0  0  0  0  0
    6.3882   -0.9427    0.0000 C   0  0  0  0  0  0  0  0  0  0  0  0
    7.5372   -1.9069    0.0000 C   0  0  0  0  0  0  0  0  0  0  0  0
    7.2768   -3.3841    0.0000 C   0  0  0  0  0  0  0  0  0  0  0  0
    5.8672   -3.8971    0.0000 C   0  0  0  0  0  0  0  0  0  0  0  0
    4.7181   -2.9329    0.0000 C   0  0  0  0  0  0  0  0  0  0  0  0
    4.0900   -7.8776    0.0000 C   0  0  0  0  0  0  0  0  0  0  0  0
    4.3505   -9.3548    0.0000 C   0  0  0  0  0  0  0  0  0  0  0  0
    3.2014  -10.3190    0.0000 C   0  0  0  0  0  0  0  0  0  0  0  0
    3.4619  -11.7962    0.0000 C   0  0  0  0  0  0  0  0  0  0  0  0
  1  2  1  0
  2  3  1  0
  3  4  1  0
  4  5  1  0
  5  6  1  0
  6  7  1  0
  4  8  1  0
  8  9  1  0
  9 10  1  0
  4 11  1  0
 11 12  2  0
 12 13  1  0
 13 14  1  0
 14 15  2  0
 14 16  2  0
 14 17  1  0
 17 18  1  0
 18 19  2  0
 18 20  1  0
 20 21  1  0
 21 22  2  0
 22 23  1  0
 23 24  2  0
 24 25  1  0
 25 26  2  0
 26 27  1  0
 27 28  2  0
 28 29  1  0
 29 30  2  0
 30 31  1  0
 31 32  2  0
 13 33  2  0
 33 34  1  0
 34 35  2  0
 35 36  1  0
 35 11  1  0
 32 18  1  0
 26 21  1  0
 32 27  1  0
M  END
>  <Candidate_ID>  (113) 
CAND_R2_113

>  <Candidate_Name>  (113) 
DOPT-triethoxysilyl

>  <Parent_Seed_ID>  (113) 
TRAIN_090

>  <Parent_Name>  (113) 
DOPT

>  <Transformation_Code>  (113) 
triethoxysilyl

>  <Design_Family>  (113) 
P-N-Si-S

>  <Preparation_Type>  (113) 
Additive + Secondary Crosslinking

>  <Synthesis_Level>  (113) 
B

>  <Parent_Tanimoto_r3>  (113) 
0.573170731707317

>  <Max_Train_Tanimoto_r3>  (113) 
0.573170731707317

>  <Risk_Flags>  (113) 
large structural change from parent; candidate may be outside strict in-domain threshold

$$$$
CAND_R2_114 | DOPT-disiloxane
     RDKit          2D

 34 37  0  0  0  0  0  0  0  0999 V2000
    3.4619  -11.7962    0.0000 C   0  0  0  0  0  0  0  0  0  0  0  0
    3.2014  -10.3190    0.0000 C   0  0  0  0  0  0  0  0  0  0  0  0
    1.7919   -9.8060    0.0000 C   0  0  0  0  0  0  0  0  0  0  0  0
    1.5314   -8.3287    0.0000 C   0  0  0  0  0  0  0  0  0  0  0  0
    2.6805   -7.3646    0.0000 C   0  0  0  0  0  0  0  0  0  0  0  0
    2.4200   -5.8874    0.0000 S   0  0  0  0  0  0  0  0  0  0  0  0
    0.9856   -6.3260    0.0000 O   0  0  0  0  0  0  0  0  0  0  0  0
    3.8972   -5.6269    0.0000 O   0  0  0  0  0  0  0  0  0  0  0  0
    2.1595   -4.4101    0.0000 N   0  0  0  0  0  0  0  0  0  0  0  0
    0.7500   -3.8971    0.0000 P   0  0  0  0  0  0  0  0  0  0  0  0
    0.3114   -5.3316    0.0000 O   0  0  0  0  0  0  0  0  0  0  0  0
    1.5000   -2.5981    0.0000 O   0  0  0  0  0  0  0  0  0  0  0  0
    0.7500   -1.2990    0.0000 C   0  0  0  0  0  0  0  0  0  0  0  0
    1.5000    0.0000    0.0000 C   0  0  0  0  0  0  0  0  0  0  0  0
    0.7500    1.2990    0.0000 C   0  0  0  0  0  0  0  0  0  0  0  0
   -0.7500    1.2990    0.0000 C   0  0  0  0  0  0  0  0  0  0  0  0
   -1.5000    0.0000    0.0000 C   0  0  0  0  0  0  0  0  0  0  0  0
   -0.7500   -1.2990    0.0000 C   0  0  0  0  0  0  0  0  0  0  0  0
   -1.5000   -2.5981    0.0000 C   0  0  0  0  0  0  0  0  0  0  0  0
   -3.0000   -2.5981    0.0000 C   0  0  0  0  0  0  0  0  0  0  0  0
   -3.7500   -3.8971    0.0000 C   0  0  0  0  0  0  0  0  0  0  0  0
   -3.0000   -5.1962    0.0000 C   0  0  0  0  0  0  0  0  0  0  0  0
   -1.5000   -5.1962    0.0000 C   0  0  0  0  0  0  0  0  0  0  0  0
   -0.7500   -3.8971    0.0000 C   0  0  0  0  0  0  0  0  0  0  0  0
    4.0900   -7.8776    0.0000 C   0  0  0  0  0  0  0  0  0  0  0  0
    4.3505   -9.3548    0.0000 C   0  0  0  0  0  0  0  0  0  0  0  0
    5.7600   -9.8678    0.0000 Si  0  0  0  0  0  4  0  0  0  0  0  0
    5.2470  -11.2774    0.0000 C   0  0  0  0  0  0  0  0  0  0  0  0
    6.2731   -8.4583    0.0000 C   0  0  0  0  0  0  0  0  0  0  0  0
    7.1696  -10.3809    0.0000 O   0  0  0  0  0  0  0  0  0  0  0  0
    7.4300  -11.8581    0.0000 Si  0  0  0  0  0  4  0  0  0  0  0  0
    8.9073  -11.5976    0.0000 C   0  0  0  0  0  0  0  0  0  0  0  0
    5.9528  -12.1186    0.0000 C   0  0  0  0  0  0  0  0  0  0  0  0
    7.6905  -13.3353    0.0000 C   0  0  0  0  0  0  0  0  0  0  0  0
  1  2  1  0
  2  3  2  0
  3  4  1  0
  4  5  2  0
  5  6  1  0
  6  7  2  0
  6  8  2  0
  6  9  1  0
  9 10  1  0
 10 11  2  0
 10 12  1  0
 12 13  1  0
 13 14  2  0
 14 15  1  0
 15 16  2  0
 16 17  1  0
 17 18  2  0
 18 19  1  0
 19 20  2  0
 20 21  1  0
 21 22  2  0
 22 23  1  0
 23 24  2  0
  5 25  1  0
 25 26  2  0
 26 27  1  0
 27 28  1  0
 27 29  1  0
 27 30  1  0
 30 31  1  0
 31 32  1  0
 31 33  1  0
 31 34  1  0
 26  2  1  0
 24 10  1  0
 18 13  1  0
 24 19  1  0
M  END
>  <Candidate_ID>  (114) 
CAND_R2_114

>  <Candidate_Name>  (114) 
DOPT-disiloxane

>  <Parent_Seed_ID>  (114) 
TRAIN_090

>  <Parent_Name>  (114) 
DOPT

>  <Transformation_Code>  (114) 
disiloxane

>  <Design_Family>  (114) 
P-N-Si-S

>  <Preparation_Type>  (114) 
Additive

>  <Synthesis_Level>  (114) 
B

>  <Parent_Tanimoto_r3>  (114) 
0.5802469135802469

>  <Max_Train_Tanimoto_r3>  (114) 
0.5802469135802469

>  <Risk_Flags>  (114) 
large structural change from parent; candidate may be outside strict in-domain threshold

$$$$
CAND_R2_115 | DOPT-glycidyloxy
     RDKit          2D

 31 35  0  0  0  0  0  0  0  0999 V2000
    3.4619  -11.7962    0.0000 C   0  0  0  0  0  0  0  0  0  0  0  0
    3.2014  -10.3190    0.0000 C   0  0  0  0  0  0  0  0  0  0  0  0
    1.7919   -9.8060    0.0000 C   0  0  0  0  0  0  0  0  0  0  0  0
    1.5314   -8.3287    0.0000 C   0  0  0  0  0  0  0  0  0  0  0  0
    2.6805   -7.3646    0.0000 C   0  0  0  0  0  0  0  0  0  0  0  0
    2.4200   -5.8874    0.0000 S   0  0  0  0  0  0  0  0  0  0  0  0
    0.9856   -6.3260    0.0000 O   0  0  0  0  0  0  0  0  0  0  0  0
    3.8972   -5.6269    0.0000 O   0  0  0  0  0  0  0  0  0  0  0  0
    2.1595   -4.4101    0.0000 N   0  0  0  0  0  0  0  0  0  0  0  0
    0.7500   -3.8971    0.0000 P   0  0  0  0  0  0  0  0  0  0  0  0
    0.3114   -5.3316    0.0000 O   0  0  0  0  0  0  0  0  0  0  0  0
    1.5000   -2.5981    0.0000 O   0  0  0  0  0  0  0  0  0  0  0  0
    0.7500   -1.2990    0.0000 C   0  0  0  0  0  0  0  0  0  0  0  0
    1.5000    0.0000    0.0000 C   0  0  0  0  0  0  0  0  0  0  0  0
    0.7500    1.2990    0.0000 C   0  0  0  0  0  0  0  0  0  0  0  0
   -0.7500    1.2990    0.0000 C   0  0  0  0  0  0  0  0  0  0  0  0
   -1.5000    0.0000    0.0000 C   0  0  0  0  0  0  0  0  0  0  0  0
   -0.7500   -1.2990    0.0000 C   0  0  0  0  0  0  0  0  0  0  0  0
   -1.5000   -2.5981    0.0000 C   0  0  0  0  0  0  0  0  0  0  0  0
   -3.0000   -2.5981    0.0000 C   0  0  0  0  0  0  0  0  0  0  0  0
   -3.7500   -3.8971    0.0000 C   0  0  0  0  0  0  0  0  0  0  0  0
   -3.0000   -5.1962    0.0000 C   0  0  0  0  0  0  0  0  0  0  0  0
   -1.5000   -5.1962    0.0000 C   0  0  0  0  0  0  0  0  0  0  0  0
   -0.7500   -3.8971    0.0000 C   0  0  0  0  0  0  0  0  0  0  0  0
    4.0900   -7.8776    0.0000 C   0  0  0  0  0  0  0  0  0  0  0  0
    4.3505   -9.3548    0.0000 C   0  0  0  0  0  0  0  0  0  0  0  0
    5.7600   -9.8678    0.0000 O   0  0  0  0  0  0  0  0  0  0  0  0
    6.9091   -8.9037    0.0000 C   0  0  0  0  0  0  0  0  0  0  0  0
    8.3186   -9.4167    0.0000 C   0  0  0  0  0  0  0  0  0  0  0  0
    9.7959   -9.1562    0.0000 C   0  0  0  0  0  0  0  0  0  0  0  0
    9.2828  -10.5658    0.0000 O   0  0  0  0  0  0  0  0  0  0  0  0
  1  2  1  0
  2  3  2  0
  3  4  1  0
  4  5  2  0
  5  6  1  0
  6  7  2  0
  6  8  2  0
  6  9  1  0
  9 10  1  0
 10 11  2  0
 10 12  1  0
 12 13  1  0
 13 14  2  0
 14 15  1  0
 15 16  2  0
 16 17  1  0
 17 18  2  0
 18 19  1  0
 19 20  2  0
 20 21  1  0
 21 22  2  0
 22 23  1  0
 23 24  2  0
  5 25  1  0
 25 26  2  0
 26 27  1  0
 27 28  1  0
 28 29  1  0
 29 30  1  0
 30 31  1  0
 26  2  1  0
 31 29  1  0
 24 10  1  0
 18 13  1  0
 24 19  1  0
M  END
>  <Candidate_ID>  (115) 
CAND_R2_115

>  <Candidate_Name>  (115) 
DOPT-glycidyloxy

>  <Parent_Seed_ID>  (115) 
TRAIN_090

>  <Parent_Name>  (115) 
DOPT

>  <Transformation_Code>  (115) 
glycidyloxy

>  <Design_Family>  (115) 
P-N-S

>  <Preparation_Type>  (115) 
Co-curing

>  <Synthesis_Level>  (115) 
C

>  <Parent_Tanimoto_r3>  (115) 
0.5465116279069767

>  <Max_Train_Tanimoto_r3>  (115) 
0.5465116279069767

>  <Risk_Flags>  (115) 
large structural change from parent; candidate may be outside strict in-domain threshold; exploratory only; excluded from formal screening

$$$$
CAND_R2_116 | DOPT-diaminotriazine
     RDKit          2D

 34 38  0  0  0  0  0  0  0  0999 V2000
    3.4619  -11.7962    0.0000 C   0  0  0  0  0  0  0  0  0  0  0  0
    3.2014  -10.3190    0.0000 C   0  0  0  0  0  0  0  0  0  0  0  0
    1.7919   -9.8060    0.0000 C   0  0  0  0  0  0  0  0  0  0  0  0
    1.5314   -8.3287    0.0000 C   0  0  0  0  0  0  0  0  0  0  0  0
    2.6805   -7.3646    0.0000 C   0  0  0  0  0  0  0  0  0  0  0  0
    2.4200   -5.8874    0.0000 S   0  0  0  0  0  0  0  0  0  0  0  0
    0.9856   -6.3260    0.0000 O   0  0  0  0  0  0  0  0  0  0  0  0
    3.8972   -5.6269    0.0000 O   0  0  0  0  0  0  0  0  0  0  0  0
    2.1595   -4.4101    0.0000 N   0  0  0  0  0  0  0  0  0  0  0  0
    0.7500   -3.8971    0.0000 P   0  0  0  0  0  0  0  0  0  0  0  0
    0.3114   -5.3316    0.0000 O   0  0  0  0  0  0  0  0  0  0  0  0
    1.5000   -2.5981    0.0000 O   0  0  0  0  0  0  0  0  0  0  0  0
    0.7500   -1.2990    0.0000 C   0  0  0  0  0  0  0  0  0  0  0  0
    1.5000    0.0000    0.0000 C   0  0  0  0  0  0  0  0  0  0  0  0
    0.7500    1.2990    0.0000 C   0  0  0  0  0  0  0  0  0  0  0  0
   -0.7500    1.2990    0.0000 C   0  0  0  0  0  0  0  0  0  0  0  0
   -1.5000    0.0000    0.0000 C   0  0  0  0  0  0  0  0  0  0  0  0
   -0.7500   -1.2990    0.0000 C   0  0  0  0  0  0  0  0  0  0  0  0
   -1.5000   -2.5981    0.0000 C   0  0  0  0  0  0  0  0  0  0  0  0
   -3.0000   -2.5981    0.0000 C   0  0  0  0  0  0  0  0  0  0  0  0
   -3.7500   -3.8971    0.0000 C   0  0  0  0  0  0  0  0  0  0  0  0
   -3.0000   -5.1962    0.0000 C   0  0  0  0  0  0  0  0  0  0  0  0
   -1.5000   -5.1962    0.0000 C   0  0  0  0  0  0  0  0  0  0  0  0
   -0.7500   -3.8971    0.0000 C   0  0  0  0  0  0  0  0  0  0  0  0
    4.0900   -7.8776    0.0000 C   0  0  0  0  0  0  0  0  0  0  0  0
    4.3505   -9.3548    0.0000 C   0  0  0  0  0  0  0  0  0  0  0  0
    5.7600   -9.8678    0.0000 C   0  0  0  0  0  0  0  0  0  0  0  0
    6.0205  -11.3451    0.0000 N   0  0  0  0  0  0  0  0  0  0  0  0
    7.4300  -11.8581    0.0000 C   0  0  0  0  0  0  0  0  0  0  0  0
    7.6905  -13.3353    0.0000 N   0  0  0  0  0  0  0  0  0  0  0  0
    8.5791  -10.8939    0.0000 N   0  0  0  0  0  0  0  0  0  0  0  0
    8.3186   -9.4167    0.0000 C   0  0  0  0  0  0  0  0  0  0  0  0
    9.4677   -8.4525    0.0000 N   0  0  0  0  0  0  0  0  0  0  0  0
    6.9091   -8.9037    0.0000 N   0  0  0  0  0  0  0  0  0  0  0  0
  1  2  1  0
  2  3  2  0
  3  4  1  0
  4  5  2  0
  5  6  1  0
  6  7  2  0
  6  8  2  0
  6  9  1  0
  9 10  1  0
 10 11  2  0
 10 12  1  0
 12 13  1  0
 13 14  2  0
 14 15  1  0
 15 16  2  0
 16 17  1  0
 17 18  2  0
 18 19  1  0
 19 20  2  0
 20 21  1  0
 21 22  2  0
 22 23  1  0
 23 24  2  0
  5 25  1  0
 25 26  2  0
 26 27  1  0
 27 28  2  0
 28 29  1  0
 29 30  1  0
 29 31  2  0
 31 32  1  0
 32 33  1  0
 32 34  2  0
 26  2  1  0
 34 27  1  0
 24 10  1  0
 18 13  1  0
 24 19  1  0
M  END
>  <Candidate_ID>  (116) 
CAND_R2_116

>  <Candidate_Name>  (116) 
DOPT-diaminotriazine

>  <Parent_Seed_ID>  (116) 
TRAIN_090

>  <Parent_Name>  (116) 
DOPT

>  <Transformation_Code>  (116) 
diaminotriazine

>  <Design_Family>  (116) 
P-N-S

>  <Preparation_Type>  (116) 
Co-curing

>  <Synthesis_Level>  (116) 
B

>  <Parent_Tanimoto_r3>  (116) 
0.5662650602409639

>  <Max_Train_Tanimoto_r3>  (116) 
0.5662650602409639

>  <Risk_Flags>  (116) 
large structural change from parent; candidate may be outside strict in-domain threshold

$$$$
CAND_R2_117 | DOPT-piperazine
     RDKit          2D

 32 36  0  0  0  0  0  0  0  0999 V2000
    3.4619  -11.7962    0.0000 C   0  0  0  0  0  0  0  0  0  0  0  0
    3.2014  -10.3190    0.0000 C   0  0  0  0  0  0  0  0  0  0  0  0
    1.7919   -9.8060    0.0000 C   0  0  0  0  0  0  0  0  0  0  0  0
    1.5314   -8.3287    0.0000 C   0  0  0  0  0  0  0  0  0  0  0  0
    2.6805   -7.3646    0.0000 C   0  0  0  0  0  0  0  0  0  0  0  0
    2.4200   -5.8874    0.0000 S   0  0  0  0  0  0  0  0  0  0  0  0
    0.9856   -6.3260    0.0000 O   0  0  0  0  0  0  0  0  0  0  0  0
    3.8972   -5.6269    0.0000 O   0  0  0  0  0  0  0  0  0  0  0  0
    2.1595   -4.4101    0.0000 N   0  0  0  0  0  0  0  0  0  0  0  0
    0.7500   -3.8971    0.0000 P   0  0  0  0  0  0  0  0  0  0  0  0
    0.3114   -5.3316    0.0000 O   0  0  0  0  0  0  0  0  0  0  0  0
    1.5000   -2.5981    0.0000 O   0  0  0  0  0  0  0  0  0  0  0  0
    0.7500   -1.2990    0.0000 C   0  0  0  0  0  0  0  0  0  0  0  0
    1.5000    0.0000    0.0000 C   0  0  0  0  0  0  0  0  0  0  0  0
    0.7500    1.2990    0.0000 C   0  0  0  0  0  0  0  0  0  0  0  0
   -0.7500    1.2990    0.0000 C   0  0  0  0  0  0  0  0  0  0  0  0
   -1.5000    0.0000    0.0000 C   0  0  0  0  0  0  0  0  0  0  0  0
   -0.7500   -1.2990    0.0000 C   0  0  0  0  0  0  0  0  0  0  0  0
   -1.5000   -2.5981    0.0000 C   0  0  0  0  0  0  0  0  0  0  0  0
   -3.0000   -2.5981    0.0000 C   0  0  0  0  0  0  0  0  0  0  0  0
   -3.7500   -3.8971    0.0000 C   0  0  0  0  0  0  0  0  0  0  0  0
   -3.0000   -5.1962    0.0000 C   0  0  0  0  0  0  0  0  0  0  0  0
   -1.5000   -5.1962    0.0000 C   0  0  0  0  0  0  0  0  0  0  0  0
   -0.7500   -3.8971    0.0000 C   0  0  0  0  0  0  0  0  0  0  0  0
    4.0900   -7.8776    0.0000 C   0  0  0  0  0  0  0  0  0  0  0  0
    4.3505   -9.3548    0.0000 C   0  0  0  0  0  0  0  0  0  0  0  0
    5.7600   -9.8678    0.0000 N   0  0  0  0  0  0  0  0  0  0  0  0
    6.0205  -11.3451    0.0000 C   0  0  0  0  0  0  0  0  0  0  0  0
    7.4300  -11.8581    0.0000 C   0  0  0  0  0  0  0  0  0  0  0  0
    8.5791  -10.8939    0.0000 N   0  0  0  0  0  0  0  0  0  0  0  0
    8.3186   -9.4167    0.0000 C   0  0  0  0  0  0  0  0  0  0  0  0
    6.9091   -8.9037    0.0000 C   0  0  0  0  0  0  0  0  0  0  0  0
  1  2  1  0
  2  3  2  0
  3  4  1  0
  4  5  2  0
  5  6  1  0
  6  7  2  0
  6  8  2  0
  6  9  1  0
  9 10  1  0
 10 11  2  0
 10 12  1  0
 12 13  1  0
 13 14  2  0
 14 15  1  0
 15 16  2  0
 16 17  1  0
 17 18  2  0
 18 19  1  0
 19 20  2  0
 20 21  1  0
 21 22  2  0
 22 23  1  0
 23 24  2  0
  5 25  1  0
 25 26  2  0
 26 27  1  0
 27 28  1  0
 28 29  1  0
 29 30  1  0
 30 31  1  0
 31 32  1  0
 26  2  1  0
 32 27  1  0
 24 10  1  0
 18 13  1  0
 24 19  1  0
M  END
>  <Candidate_ID>  (117) 
CAND_R2_117

>  <Candidate_Name>  (117) 
DOPT-piperazine

>  <Parent_Seed_ID>  (117) 
TRAIN_090

>  <Parent_Name>  (117) 
DOPT

>  <Transformation_Code>  (117) 
piperazine

>  <Design_Family>  (117) 
P-N-S

>  <Preparation_Type>  (117) 
Co-curing

>  <Synthesis_Level>  (117) 
B

>  <Parent_Tanimoto_r3>  (117) 
0.5529411764705883

>  <Max_Train_Tanimoto_r3>  (117) 
0.5529411764705883

>  <Risk_Flags>  (117) 
large structural change from parent; candidate may be outside strict in-domain threshold

$$$$
CAND_R2_118 | DOPT-benzamide-linker
     RDKit          2D

 35 39  0  0  0  0  0  0  0  0999 V2000
    3.4619  -11.7962    0.0000 C   0  0  0  0  0  0  0  0  0  0  0  0
    3.2014  -10.3190    0.0000 C   0  0  0  0  0  0  0  0  0  0  0  0
    1.7919   -9.8060    0.0000 C   0  0  0  0  0  0  0  0  0  0  0  0
    1.5314   -8.3287    0.0000 C   0  0  0  0  0  0  0  0  0  0  0  0
    2.6805   -7.3646    0.0000 C   0  0  0  0  0  0  0  0  0  0  0  0
    2.4200   -5.8874    0.0000 S   0  0  0  0  0  0  0  0  0  0  0  0
    0.9856   -6.3260    0.0000 O   0  0  0  0  0  0  0  0  0  0  0  0
    3.8972   -5.6269    0.0000 O   0  0  0  0  0  0  0  0  0  0  0  0
    2.1595   -4.4101    0.0000 N   0  0  0  0  0  0  0  0  0  0  0  0
    0.7500   -3.8971    0.0000 P   0  0  0  0  0  0  0  0  0  0  0  0
    0.3114   -5.3316    0.0000 O   0  0  0  0  0  0  0  0  0  0  0  0
    1.5000   -2.5981    0.0000 O   0  0  0  0  0  0  0  0  0  0  0  0
    0.7500   -1.2990    0.0000 C   0  0  0  0  0  0  0  0  0  0  0  0
    1.5000    0.0000    0.0000 C   0  0  0  0  0  0  0  0  0  0  0  0
    0.7500    1.2990    0.0000 C   0  0  0  0  0  0  0  0  0  0  0  0
   -0.7500    1.2990    0.0000 C   0  0  0  0  0  0  0  0  0  0  0  0
   -1.5000    0.0000    0.0000 C   0  0  0  0  0  0  0  0  0  0  0  0
   -0.7500   -1.2990    0.0000 C   0  0  0  0  0  0  0  0  0  0  0  0
   -1.5000   -2.5981    0.0000 C   0  0  0  0  0  0  0  0  0  0  0  0
   -3.0000   -2.5981    0.0000 C   0  0  0  0  0  0  0  0  0  0  0  0
   -3.7500   -3.8971    0.0000 C   0  0  0  0  0  0  0  0  0  0  0  0
   -3.0000   -5.1962    0.0000 C   0  0  0  0  0  0  0  0  0  0  0  0
   -1.5000   -5.1962    0.0000 C   0  0  0  0  0  0  0  0  0  0  0  0
   -0.7500   -3.8971    0.0000 C   0  0  0  0  0  0  0  0  0  0  0  0
    4.0900   -7.8776    0.0000 C   0  0  0  0  0  0  0  0  0  0  0  0
    4.3505   -9.3548    0.0000 C   0  0  0  0  0  0  0  0  0  0  0  0
    5.7600   -9.8678    0.0000 N   0  0  0  0  0  0  0  0  0  0  0  0
    6.9091   -8.9037    0.0000 C   0  0  0  0  0  0  0  0  0  0  0  0
    6.6486   -7.4264    0.0000 O   0  0  0  0  0  0  0  0  0  0  0  0
    8.3186   -9.4167    0.0000 C   0  0  0  0  0  0  0  0  0  0  0  0
    8.5791  -10.8939    0.0000 C   0  0  0  0  0  0  0  0  0  0  0  0
    9.9887  -11.4069    0.0000 C   0  0  0  0  0  0  0  0  0  0  0  0
   11.1377  -10.4427    0.0000 C   0  0  0  0  0  0  0  0  0  0  0  0
   10.8772   -8.9655    0.0000 C   0  0  0  0  0  0  0  0  0  0  0  0
    9.4677   -8.4525    0.0000 C   0  0  0  0  0  0  0  0  0  0  0  0
  1  2  1  0
  2  3  2  0
  3  4  1  0
  4  5  2  0
  5  6  1  0
  6  7  2  0
  6  8  2  0
  6  9  1  0
  9 10  1  0
 10 11  2  0
 10 12  1  0
 12 13  1  0
 13 14  2  0
 14 15  1  0
 15 16  2  0
 16 17  1  0
 17 18  2  0
 18 19  1  0
 19 20  2  0
 20 21  1  0
 21 22  2  0
 22 23  1  0
 23 24  2  0
  5 25  1  0
 25 26  2  0
 26 27  1  0
 27 28  1  0
 28 29  2  0
 28 30  1  0
 30 31  2  0
 31 32  1  0
 32 33  2  0
 33 34  1  0
 34 35  2  0
 26  2  1  0
 35 30  1  0
 24 10  1  0
 18 13  1  0
 24 19  1  0
M  END
>  <Candidate_ID>  (118) 
CAND_R2_118

>  <Candidate_Name>  (118) 
DOPT-benzamide-linker

>  <Parent_Seed_ID>  (118) 
TRAIN_090

>  <Parent_Name>  (118) 
DOPT

>  <Transformation_Code>  (118) 
benzamide_linker

>  <Design_Family>  (118) 
P-N-S

>  <Preparation_Type>  (118) 
Additive

>  <Synthesis_Level>  (118) 
C

>  <Parent_Tanimoto_r3>  (118) 
0.5402298850574713

>  <Max_Train_Tanimoto_r3>  (118) 
0.5402298850574713

>  <Risk_Flags>  (118) 
large structural change from parent; candidate may be outside strict in-domain threshold; exploratory only; excluded from formal screening

$$$$
CAND_R2_119 | DOPT-phenyl
     RDKit          2D

 32 36  0  0  0  0  0  0  0  0999 V2000
    3.4619  -11.7962    0.0000 C   0  0  0  0  0  0  0  0  0  0  0  0
    3.2014  -10.3190    0.0000 C   0  0  0  0  0  0  0  0  0  0  0  0
    1.7919   -9.8060    0.0000 C   0  0  0  0  0  0  0  0  0  0  0  0
    1.5314   -8.3287    0.0000 C   0  0  0  0  0  0  0  0  0  0  0  0
    2.6805   -7.3646    0.0000 C   0  0  0  0  0  0  0  0  0  0  0  0
    2.4200   -5.8874    0.0000 S   0  0  0  0  0  0  0  0  0  0  0  0
    0.9856   -6.3260    0.0000 O   0  0  0  0  0  0  0  0  0  0  0  0
    3.8972   -5.6269    0.0000 O   0  0  0  0  0  0  0  0  0  0  0  0
    2.1595   -4.4101    0.0000 N   0  0  0  0  0  0  0  0  0  0  0  0
    0.7500   -3.8971    0.0000 P   0  0  0  0  0  0  0  0  0  0  0  0
    0.3114   -5.3316    0.0000 O   0  0  0  0  0  0  0  0  0  0  0  0
    1.5000   -2.5981    0.0000 O   0  0  0  0  0  0  0  0  0  0  0  0
    0.7500   -1.2990    0.0000 C   0  0  0  0  0  0  0  0  0  0  0  0
    1.5000    0.0000    0.0000 C   0  0  0  0  0  0  0  0  0  0  0  0
    0.7500    1.2990    0.0000 C   0  0  0  0  0  0  0  0  0  0  0  0
   -0.7500    1.2990    0.0000 C   0  0  0  0  0  0  0  0  0  0  0  0
   -1.5000    0.0000    0.0000 C   0  0  0  0  0  0  0  0  0  0  0  0
   -0.7500   -1.2990    0.0000 C   0  0  0  0  0  0  0  0  0  0  0  0
   -1.5000   -2.5981    0.0000 C   0  0  0  0  0  0  0  0  0  0  0  0
   -3.0000   -2.5981    0.0000 C   0  0  0  0  0  0  0  0  0  0  0  0
   -3.7500   -3.8971    0.0000 C   0  0  0  0  0  0  0  0  0  0  0  0
   -3.0000   -5.1962    0.0000 C   0  0  0  0  0  0  0  0  0  0  0  0
   -1.5000   -5.1962    0.0000 C   0  0  0  0  0  0  0  0  0  0  0  0
   -0.7500   -3.8971    0.0000 C   0  0  0  0  0  0  0  0  0  0  0  0
    4.0900   -7.8776    0.0000 C   0  0  0  0  0  0  0  0  0  0  0  0
    4.3505   -9.3548    0.0000 C   0  0  0  0  0  0  0  0  0  0  0  0
    5.7600   -9.8678    0.0000 C   0  0  0  0  0  0  0  0  0  0  0  0
    6.0205  -11.3451    0.0000 C   0  0  0  0  0  0  0  0  0  0  0  0
    7.4300  -11.8581    0.0000 C   0  0  0  0  0  0  0  0  0  0  0  0
    8.5791  -10.8939    0.0000 C   0  0  0  0  0  0  0  0  0  0  0  0
    8.3186   -9.4167    0.0000 C   0  0  0  0  0  0  0  0  0  0  0  0
    6.9091   -8.9037    0.0000 C   0  0  0  0  0  0  0  0  0  0  0  0
  1  2  1  0
  2  3  2  0
  3  4  1  0
  4  5  2  0
  5  6  1  0
  6  7  2  0
  6  8  2  0
  6  9  1  0
  9 10  1  0
 10 11  2  0
 10 12  1  0
 12 13  1  0
 13 14  2  0
 14 15  1  0
 15 16  2  0
 16 17  1  0
 17 18  2  0
 18 19  1  0
 19 20  2  0
 20 21  1  0
 21 22  2  0
 22 23  1  0
 23 24  2  0
  5 25  1  0
 25 26  2  0
 26 27  1  0
 27 28  2  0
 28 29  1  0
 29 30  2  0
 30 31  1  0
 31 32  2  0
 26  2  1  0
 32 27  1  0
 24 10  1  0
 18 13  1  0
 24 19  1  0
M  END
>  <Candidate_ID>  (119) 
CAND_R2_119

>  <Candidate_Name>  (119) 
DOPT-phenyl

>  <Parent_Seed_ID>  (119) 
TRAIN_090

>  <Parent_Name>  (119) 
DOPT

>  <Transformation_Code>  (119) 
phenyl

>  <Design_Family>  (119) 
P-N-S

>  <Preparation_Type>  (119) 
Additive

>  <Synthesis_Level>  (119) 
B

>  <Parent_Tanimoto_r3>  (119) 
0.6025641025641025

>  <Max_Train_Tanimoto_r3>  (119) 
0.6025641025641025

>  <Risk_Flags>  (119) 
large structural change from parent; candidate may be outside strict in-domain threshold

$$$$
CAND_R2_120 | DOPT-biphenyl
     RDKit          2D

 38 43  0  0  0  0  0  0  0  0999 V2000
    3.4619  -11.7962    0.0000 C   0  0  0  0  0  0  0  0  0  0  0  0
    3.2014  -10.3190    0.0000 C   0  0  0  0  0  0  0  0  0  0  0  0
    1.7919   -9.8060    0.0000 C   0  0  0  0  0  0  0  0  0  0  0  0
    1.5314   -8.3287    0.0000 C   0  0  0  0  0  0  0  0  0  0  0  0
    2.6805   -7.3646    0.0000 C   0  0  0  0  0  0  0  0  0  0  0  0
    2.4200   -5.8874    0.0000 S   0  0  0  0  0  0  0  0  0  0  0  0
    0.9856   -6.3260    0.0000 O   0  0  0  0  0  0  0  0  0  0  0  0
    3.8972   -5.6269    0.0000 O   0  0  0  0  0  0  0  0  0  0  0  0
    2.1595   -4.4101    0.0000 N   0  0  0  0  0  0  0  0  0  0  0  0
    0.7500   -3.8971    0.0000 P   0  0  0  0  0  0  0  0  0  0  0  0
    0.3114   -5.3316    0.0000 O   0  0  0  0  0  0  0  0  0  0  0  0
    1.5000   -2.5981    0.0000 O   0  0  0  0  0  0  0  0  0  0  0  0
    0.7500   -1.2990    0.0000 C   0  0  0  0  0  0  0  0  0  0  0  0
    1.5000    0.0000    0.0000 C   0  0  0  0  0  0  0  0  0  0  0  0
    0.7500    1.2990    0.0000 C   0  0  0  0  0  0  0  0  0  0  0  0
   -0.7500    1.2990    0.0000 C   0  0  0  0  0  0  0  0  0  0  0  0
   -1.5000    0.0000    0.0000 C   0  0  0  0  0  0  0  0  0  0  0  0
   -0.7500   -1.2990    0.0000 C   0  0  0  0  0  0  0  0  0  0  0  0
   -1.5000   -2.5981    0.0000 C   0  0  0  0  0  0  0  0  0  0  0  0
   -3.0000   -2.5981    0.0000 C   0  0  0  0  0  0  0  0  0  0  0  0
   -3.7500   -3.8971    0.0000 C   0  0  0  0  0  0  0  0  0  0  0  0
   -3.0000   -5.1962    0.0000 C   0  0  0  0  0  0  0  0  0  0  0  0
   -1.5000   -5.1962    0.0000 C   0  0  0  0  0  0  0  0  0  0  0  0
   -0.7500   -3.8971    0.0000 C   0  0  0  0  0  0  0  0  0  0  0  0
    4.0900   -7.8776    0.0000 C   0  0  0  0  0  0  0  0  0  0  0  0
    4.3505   -9.3548    0.0000 C   0  0  0  0  0  0  0  0  0  0  0  0
    5.7600   -9.8678    0.0000 C   0  0  0  0  0  0  0  0  0  0  0  0
    6.0205  -11.3451    0.0000 C   0  0  0  0  0  0  0  0  0  0  0  0
    7.4300  -11.8581    0.0000 C   0  0  0  0  0  0  0  0  0  0  0  0
    8.5791  -10.8939    0.0000 C   0  0  0  0  0  0  0  0  0  0  0  0
    9.9887  -11.4069    0.0000 C   0  0  0  0  0  0  0  0  0  0  0  0
   10.2491  -12.8841    0.0000 C   0  0  0  0  0  0  0  0  0  0  0  0
   11.6587  -13.3972    0.0000 C   0  0  0  0  0  0  0  0  0  0  0  0
   12.8077  -12.4330    0.0000 C   0  0  0  0  0  0  0  0  0  0  0  0
   12.5473  -10.9558    0.0000 C   0  0  0  0  0  0  0  0  0  0  0  0
   11.1377  -10.4427    0.0000 C   0  0  0  0  0  0  0  0  0  0  0  0
    8.3186   -9.4167    0.0000 C   0  0  0  0  0  0  0  0  0  0  0  0
    6.9091   -8.9037    0.0000 C   0  0  0  0  0  0  0  0  0  0  0  0
  1  2  1  0
  2  3  2  0
  3  4  1  0
  4  5  2  0
  5  6  1  0
  6  7  2  0
  6  8  2  0
  6  9  1  0
  9 10  1  0
 10 11  2  0
 10 12  1  0
 12 13  1  0
 13 14  2  0
 14 15  1  0
 15 16  2  0
 16 17  1  0
 17 18  2  0
 18 19  1  0
 19 20  2  0
 20 21  1  0
 21 22  2  0
 22 23  1  0
 23 24  2  0
  5 25  1  0
 25 26  2  0
 26 27  1  0
 27 28  2  0
 28 29  1  0
 29 30  2  0
 30 31  1  0
 31 32  2  0
 32 33  1  0
 33 34  2  0
 34 35  1  0
 35 36  2  0
 30 37  1  0
 37 38  2  0
 26  2  1  0
 38 27  1  0
 24 10  1  0
 36 31  1  0
 18 13  1  0
 24 19  1  0
M  END
>  <Candidate_ID>  (120) 
CAND_R2_120

>  <Candidate_Name>  (120) 
DOPT-biphenyl

>  <Parent_Seed_ID>  (120) 
TRAIN_090

>  <Parent_Name>  (120) 
DOPT

>  <Transformation_Code>  (120) 
biphenyl

>  <Design_Family>  (120) 
P-N-S

>  <Preparation_Type>  (120) 
Additive

>  <Synthesis_Level>  (120) 
B

>  <Parent_Tanimoto_r3>  (120) 
0.5662650602409639

>  <Max_Train_Tanimoto_r3>  (120) 
0.5662650602409639

>  <Risk_Flags>  (120) 
large structural change from parent; candidate may be outside strict in-domain threshold

$$$$
CAND_R2_121 | DOPT-aryl-methyl-to-aldehyde
     RDKit          2D

 27 30  0  0  0  0  0  0  0  0999 V2000
    4.8714  -12.3092    0.0000 O   0  0  0  0  0  0  0  0  0  0  0  0
    3.4619  -11.7962    0.0000 C   0  0  0  0  0  0  0  0  0  0  0  0
    3.2014  -10.3190    0.0000 C   0  0  0  0  0  0  0  0  0  0  0  0
    4.3505   -9.3548    0.0000 C   0  0  0  0  0  0  0  0  0  0  0  0
    4.0900   -7.8776    0.0000 C   0  0  0  0  0  0  0  0  0  0  0  0
    2.6805   -7.3646    0.0000 C   0  0  0  0  0  0  0  0  0  0  0  0
    2.4200   -5.8874    0.0000 S   0  0  0  0  0  0  0  0  0  0  0  0
    3.8972   -5.6269    0.0000 O   0  0  0  0  0  0  0  0  0  0  0  0
    0.9856   -6.3260    0.0000 O   0  0  0  0  0  0  0  0  0  0  0  0
    2.1595   -4.4101    0.0000 N   0  0  0  0  0  0  0  0  0  0  0  0
    0.7500   -3.8971    0.0000 P   0  0  0  0  0  0  0  0  0  0  0  0
    0.3114   -5.3316    0.0000 O   0  0  0  0  0  0  0  0  0  0  0  0
    1.5000   -2.5981    0.0000 O   0  0  0  0  0  0  0  0  0  0  0  0
    0.7500   -1.2990    0.0000 C   0  0  0  0  0  0  0  0  0  0  0  0
    1.5000    0.0000    0.0000 C   0  0  0  0  0  0  0  0  0  0  0  0
    0.7500    1.2990    0.0000 C   0  0  0  0  0  0  0  0  0  0  0  0
   -0.7500    1.2990    0.0000 C   0  0  0  0  0  0  0  0  0  0  0  0
   -1.5000    0.0000    0.0000 C   0  0  0  0  0  0  0  0  0  0  0  0
   -0.7500   -1.2990    0.0000 C   0  0  0  0  0  0  0  0  0  0  0  0
   -1.5000   -2.5981    0.0000 C   0  0  0  0  0  0  0  0  0  0  0  0
   -3.0000   -2.5981    0.0000 C   0  0  0  0  0  0  0  0  0  0  0  0
   -3.7500   -3.8971    0.0000 C   0  0  0  0  0  0  0  0  0  0  0  0
   -3.0000   -5.1962    0.0000 C   0  0  0  0  0  0  0  0  0  0  0  0
   -1.5000   -5.1962    0.0000 C   0  0  0  0  0  0  0  0  0  0  0  0
   -0.7500   -3.8971    0.0000 C   0  0  0  0  0  0  0  0  0  0  0  0
    1.5314   -8.3287    0.0000 C   0  0  0  0  0  0  0  0  0  0  0  0
    1.7919   -9.8060    0.0000 C   0  0  0  0  0  0  0  0  0  0  0  0
  1  2  2  0
  2  3  1  0
  3  4  2  0
  4  5  1  0
  5  6  2  0
  6  7  1  0
  7  8  2  0
  7  9  2  0
  7 10  1  0
 10 11  1  0
 11 12  2  0
 11 13  1  0
 13 14  1  0
 14 15  2  0
 15 16  1  0
 16 17  2  0
 17 18  1  0
 18 19  2  0
 19 20  1  0
 20 21  2  0
 21 22  1  0
 22 23  2  0
 23 24  1  0
 24 25  2  0
  6 26  1  0
 26 27  2  0
 27  3  1  0
 25 11  1  0
 19 14  1  0
 25 20  1  0
M  END
>  <Candidate_ID>  (121) 
CAND_R2_121

>  <Candidate_Name>  (121) 
DOPT-aryl-methyl-to-aldehyde

>  <Parent_Seed_ID>  (121) 
TRAIN_090

>  <Parent_Name>  (121) 
DOPT

>  <Transformation_Code>  (121) 
aryl_methyl_to_aldehyde

>  <Design_Family>  (121) 
P-N-S

>  <Preparation_Type>  (121) 
Additive

>  <Synthesis_Level>  (121) 
B

>  <Parent_Tanimoto_r3>  (121) 
0.7272727272727273

>  <Max_Train_Tanimoto_r3>  (121) 
0.7272727272727273

>  <Risk_Flags>  (121) 
none

$$$$
CAND_R2_122 | DOPT-aryl-methyl-to-acid
     RDKit          2D

 28 31  0  0  0  0  0  0  0  0999 V2000
    2.3128  -12.7604    0.0000 O   0  0  0  0  0  0  0  0  0  0  0  0
    3.4619  -11.7962    0.0000 C   0  0  0  0  0  0  0  0  0  0  0  0
    4.8714  -12.3092    0.0000 O   0  0  0  0  0  0  0  0  0  0  0  0
    3.2014  -10.3190    0.0000 C   0  0  0  0  0  0  0  0  0  0  0  0
    4.3505   -9.3548    0.0000 C   0  0  0  0  0  0  0  0  0  0  0  0
    4.0900   -7.8776    0.0000 C   0  0  0  0  0  0  0  0  0  0  0  0
    2.6805   -7.3646    0.0000 C   0  0  0  0  0  0  0  0  0  0  0  0
    2.4200   -5.8874    0.0000 S   0  0  0  0  0  0  0  0  0  0  0  0
    3.8972   -5.6269    0.0000 O   0  0  0  0  0  0  0  0  0  0  0  0
    0.9856   -6.3260    0.0000 O   0  0  0  0  0  0  0  0  0  0  0  0
    2.1595   -4.4101    0.0000 N   0  0  0  0  0  0  0  0  0  0  0  0
    0.7500   -3.8971    0.0000 P   0  0  0  0  0  0  0  0  0  0  0  0
    0.3114   -5.3316    0.0000 O   0  0  0  0  0  0  0  0  0  0  0  0
    1.5000   -2.5981    0.0000 O   0  0  0  0  0  0  0  0  0  0  0  0
    0.7500   -1.2990    0.0000 C   0  0  0  0  0  0  0  0  0  0  0  0
    1.5000    0.0000    0.0000 C   0  0  0  0  0  0  0  0  0  0  0  0
    0.7500    1.2990    0.0000 C   0  0  0  0  0  0  0  0  0  0  0  0
   -0.7500    1.2990    0.0000 C   0  0  0  0  0  0  0  0  0  0  0  0
   -1.5000    0.0000    0.0000 C   0  0  0  0  0  0  0  0  0  0  0  0
   -0.7500   -1.2990    0.0000 C   0  0  0  0  0  0  0  0  0  0  0  0
   -1.5000   -2.5981    0.0000 C   0  0  0  0  0  0  0  0  0  0  0  0
   -3.0000   -2.5981    0.0000 C   0  0  0  0  0  0  0  0  0  0  0  0
   -3.7500   -3.8971    0.0000 C   0  0  0  0  0  0  0  0  0  0  0  0
   -3.0000   -5.1962    0.0000 C   0  0  0  0  0  0  0  0  0  0  0  0
   -1.5000   -5.1962    0.0000 C   0  0  0  0  0  0  0  0  0  0  0  0
   -0.7500   -3.8971    0.0000 C   0  0  0  0  0  0  0  0  0  0  0  0
    1.5314   -8.3287    0.0000 C   0  0  0  0  0  0  0  0  0  0  0  0
    1.7919   -9.8060    0.0000 C   0  0  0  0  0  0  0  0  0  0  0  0
  1  2  2  0
  2  3  1  0
  2  4  1  0
  4  5  2  0
  5  6  1  0
  6  7  2  0
  7  8  1  0
  8  9  2  0
  8 10  2  0
  8 11  1  0
 11 12  1  0
 12 13  2  0
 12 14  1  0
 14 15  1  0
 15 16  2  0
 16 17  1  0
 17 18  2  0
 18 19  1  0
 19 20  2  0
 20 21  1  0
 21 22  2  0
 22 23  1  0
 23 24  2  0
 24 25  1  0
 25 26  2  0
  7 27  1  0
 27 28  2  0
 28  4  1  0
 26 12  1  0
 20 15  1  0
 26 21  1  0
M  END
>  <Candidate_ID>  (122) 
CAND_R2_122

>  <Candidate_Name>  (122) 
DOPT-aryl-methyl-to-acid

>  <Parent_Seed_ID>  (122) 
TRAIN_090

>  <Parent_Name>  (122) 
DOPT

>  <Transformation_Code>  (122) 
aryl_methyl_to_acid

>  <Design_Family>  (122) 
P-N-S

>  <Preparation_Type>  (122) 
Additive

>  <Synthesis_Level>  (122) 
B

>  <Parent_Tanimoto_r3>  (122) 
0.7164179104477612

>  <Max_Train_Tanimoto_r3>  (122) 
0.7164179104477612

>  <Risk_Flags>  (122) 
none

$$$$
CAND_R2_123 | DOPT-NH-methyl
     RDKit          2D

 27 30  0  0  0  0  0  0  0  0999 V2000
    3.4619  -11.7962    0.0000 C   0  0  0  0  0  0  0  0  0  0  0  0
    3.2014  -10.3190    0.0000 C   0  0  0  0  0  0  0  0  0  0  0  0
    4.3505   -9.3548    0.0000 C   0  0  0  0  0  0  0  0  0  0  0  0
    4.0900   -7.8776    0.0000 C   0  0  0  0  0  0  0  0  0  0  0  0
    2.6805   -7.3646    0.0000 C   0  0  0  0  0  0  0  0  0  0  0  0
    2.4200   -5.8874    0.0000 S   0  0  0  0  0  0  0  0  0  0  0  0
    0.9856   -6.3260    0.0000 O   0  0  0  0  0  0  0  0  0  0  0  0
    3.8972   -5.6269    0.0000 O   0  0  0  0  0  0  0  0  0  0  0  0
    2.1595   -4.4101    0.0000 N   0  0  0  0  0  0  0  0  0  0  0  0
    3.3086   -3.4460    0.0000 C   0  0  0  0  0  0  0  0  0  0  0  0
    0.7500   -3.8971    0.0000 P   0  0  0  0  0  0  0  0  0  0  0  0
    0.3114   -5.3316    0.0000 O   0  0  0  0  0  0  0  0  0  0  0  0
    1.5000   -2.5981    0.0000 O   0  0  0  0  0  0  0  0  0  0  0  0
    0.7500   -1.2990    0.0000 C   0  0  0  0  0  0  0  0  0  0  0  0
    1.5000    0.0000    0.0000 C   0  0  0  0  0  0  0  0  0  0  0  0
    0.7500    1.2990    0.0000 C   0  0  0  0  0  0  0  0  0  0  0  0
   -0.7500    1.2990    0.0000 C   0  0  0  0  0  0  0  0  0  0  0  0
   -1.5000    0.0000    0.0000 C   0  0  0  0  0  0  0  0  0  0  0  0
   -0.7500   -1.2990    0.0000 C   0  0  0  0  0  0  0  0  0  0  0  0
   -1.5000   -2.5981    0.0000 C   0  0  0  0  0  0  0  0  0  0  0  0
   -3.0000   -2.5981    0.0000 C   0  0  0  0  0  0  0  0  0  0  0  0
   -3.7500   -3.8971    0.0000 C   0  0  0  0  0  0  0  0  0  0  0  0
   -3.0000   -5.1962    0.0000 C   0  0  0  0  0  0  0  0  0  0  0  0
   -1.5000   -5.1962    0.0000 C   0  0  0  0  0  0  0  0  0  0  0  0
   -0.7500   -3.8971    0.0000 C   0  0  0  0  0  0  0  0  0  0  0  0
    1.5314   -8.3287    0.0000 C   0  0  0  0  0  0  0  0  0  0  0  0
    1.7919   -9.8060    0.0000 C   0  0  0  0  0  0  0  0  0  0  0  0
  1  2  1  0
  2  3  2  0
  3  4  1  0
  4  5  2  0
  5  6  1  0
  6  7  2  0
  6  8  2  0
  6  9  1  0
  9 10  1  0
  9 11  1  0
 11 12  2  0
 11 13  1  0
 13 14  1  0
 14 15  2  0
 15 16  1  0
 16 17  2  0
 17 18  1  0
 18 19  2  0
 19 20  1  0
 20 21  2  0
 21 22  1  0
 22 23  2  0
 23 24  1  0
 24 25  2  0
  5 26  1  0
 26 27  2  0
 27  2  1  0
 25 11  1  0
 19 14  1  0
 25 20  1  0
M  END
>  <Candidate_ID>  (123) 
CAND_R2_123

>  <Candidate_Name>  (123) 
DOPT-NH-methyl

>  <Parent_Seed_ID>  (123) 
TRAIN_090

>  <Parent_Name>  (123) 
DOPT

>  <Transformation_Code>  (123) 
NH_methyl

>  <Design_Family>  (123) 
P-N-S

>  <Preparation_Type>  (123) 
Additive

>  <Synthesis_Level>  (123) 
C

>  <Parent_Tanimoto_r3>  (123) 
0.4805194805194805

>  <Max_Train_Tanimoto_r3>  (123) 
0.4805194805194805

>  <Risk_Flags>  (123) 
large structural change from parent; candidate may be outside strict in-domain threshold; exploratory only; excluded from formal screening

$$$$
CAND_R2_124 | DOPT-NH-hydroxyethyl
     RDKit          2D

 29 32  0  0  0  0  0  0  0  0999 V2000
    3.4619  -11.7962    0.0000 C   0  0  0  0  0  0  0  0  0  0  0  0
    3.2014  -10.3190    0.0000 C   0  0  0  0  0  0  0  0  0  0  0  0
    4.3505   -9.3548    0.0000 C   0  0  0  0  0  0  0  0  0  0  0  0
    4.0900   -7.8776    0.0000 C   0  0  0  0  0  0  0  0  0  0  0  0
    2.6805   -7.3646    0.0000 C   0  0  0  0  0  0  0  0  0  0  0  0
    2.4200   -5.8874    0.0000 S   0  0  0  0  0  0  0  0  0  0  0  0
    0.9856   -6.3260    0.0000 O   0  0  0  0  0  0  0  0  0  0  0  0
    3.8972   -5.6269    0.0000 O   0  0  0  0  0  0  0  0  0  0  0  0
    2.1595   -4.4101    0.0000 N   0  0  0  0  0  0  0  0  0  0  0  0
    3.3086   -3.4460    0.0000 C   0  0  0  0  0  0  0  0  0  0  0  0
    4.7181   -3.9590    0.0000 C   0  0  0  0  0  0  0  0  0  0  0  0
    5.8672   -2.9948    0.0000 O   0  0  0  0  0  0  0  0  0  0  0  0
    0.7500   -3.8971    0.0000 P   0  0  0  0  0  0  0  0  0  0  0  0
    0.3114   -5.3316    0.0000 O   0  0  0  0  0  0  0  0  0  0  0  0
    1.5000   -2.5981    0.0000 O   0  0  0  0  0  0  0  0  0  0  0  0
    0.7500   -1.2990    0.0000 C   0  0  0  0  0  0  0  0  0  0  0  0
    1.5000    0.0000    0.0000 C   0  0  0  0  0  0  0  0  0  0  0  0
    0.7500    1.2990    0.0000 C   0  0  0  0  0  0  0  0  0  0  0  0
   -0.7500    1.2990    0.0000 C   0  0  0  0  0  0  0  0  0  0  0  0
   -1.5000    0.0000    0.0000 C   0  0  0  0  0  0  0  0  0  0  0  0
   -0.7500   -1.2990    0.0000 C   0  0  0  0  0  0  0  0  0  0  0  0
   -1.5000   -2.5981    0.0000 C   0  0  0  0  0  0  0  0  0  0  0  0
   -3.0000   -2.5981    0.0000 C   0  0  0  0  0  0  0  0  0  0  0  0
   -3.7500   -3.8971    0.0000 C   0  0  0  0  0  0  0  0  0  0  0  0
   -3.0000   -5.1962    0.0000 C   0  0  0  0  0  0  0  0  0  0  0  0
   -1.5000   -5.1962    0.0000 C   0  0  0  0  0  0  0  0  0  0  0  0
   -0.7500   -3.8971    0.0000 C   0  0  0  0  0  0  0  0  0  0  0  0
    1.5314   -8.3287    0.0000 C   0  0  0  0  0  0  0  0  0  0  0  0
    1.7919   -9.8060    0.0000 C   0  0  0  0  0  0  0  0  0  0  0  0
  1  2  1  0
  2  3  2  0
  3  4  1  0
  4  5  2  0
  5  6  1  0
  6  7  2  0
  6  8  2  0
  6  9  1  0
  9 10  1  0
 10 11  1  0
 11 12  1  0
  9 13  1  0
 13 14  2  0
 13 15  1  0
 15 16  1  0
 16 17  2  0
 17 18  1  0
 18 19  2  0
 19 20  1  0
 20 21  2  0
 21 22  1  0
 22 23  2  0
 23 24  1  0
 24 25  2  0
 25 26  1  0
 26 27  2  0
  5 28  1  0
 28 29  2  0
 29  2  1  0
 27 13  1  0
 21 16  1  0
 27 22  1  0
M  END
>  <Candidate_ID>  (124) 
CAND_R2_124

>  <Candidate_Name>  (124) 
DOPT-NH-hydroxyethyl

>  <Parent_Seed_ID>  (124) 
TRAIN_090

>  <Parent_Name>  (124) 
DOPT

>  <Transformation_Code>  (124) 
NH_hydroxyethyl

>  <Design_Family>  (124) 
P-N-S

>  <Preparation_Type>  (124) 
Additive

>  <Synthesis_Level>  (124) 
C

>  <Parent_Tanimoto_r3>  (124) 
0.44047619047619047

>  <Max_Train_Tanimoto_r3>  (124) 
0.44047619047619047

>  <Risk_Flags>  (124) 
large structural change from parent; candidate may be outside strict in-domain threshold; exploratory only; excluded from formal screening

$$$$
CAND_R2_125 | DOPT-NH-glycidyl
     RDKit          2D

 30 34  0  0  0  0  0  0  0  0999 V2000
    7.9049    0.4108    0.0000 C   0  0  0  0  0  0  0  0  0  0  0  0
    6.7558   -0.5534    0.0000 C   0  0  0  0  0  0  0  0  0  0  0  0
    5.3463   -0.0404    0.0000 C   0  0  0  0  0  0  0  0  0  0  0  0
    4.1972   -1.0046    0.0000 C   0  0  0  0  0  0  0  0  0  0  0  0
    4.4577   -2.4818    0.0000 C   0  0  0  0  0  0  0  0  0  0  0  0
    3.3086   -3.4460    0.0000 S   0  0  0  0  0  0  0  0  0  0  0  0
    4.2728   -4.5950    0.0000 O   0  0  0  0  0  0  0  0  0  0  0  0
    2.4917   -2.1879    0.0000 O   0  0  0  0  0  0  0  0  0  0  0  0
    2.1595   -4.4101    0.0000 N   0  0  0  0  0  0  0  0  0  0  0  0
    2.4200   -5.8874    0.0000 C   0  0  0  0  0  0  0  0  0  0  0  0
    3.8296   -6.4004    0.0000 C   0  0  0  0  0  0  0  0  0  0  0  0
    5.3068   -6.1399    0.0000 C   0  0  0  0  0  0  0  0  0  0  0  0
    4.7937   -7.5495    0.0000 O   0  0  0  0  0  0  0  0  0  0  0  0
    0.7500   -3.8971    0.0000 P   0  0  0  0  0  0  0  0  0  0  0  0
    1.3361   -2.5163    0.0000 O   0  0  0  0  0  0  0  0  0  0  0  0
    0.4895   -5.3743    0.0000 O   0  0  0  0  0  0  0  0  0  0  0  0
   -0.9200   -5.8874    0.0000 C   0  0  0  0  0  0  0  0  0  0  0  0
   -1.1805   -7.3646    0.0000 C   0  0  0  0  0  0  0  0  0  0  0  0
   -2.5900   -7.8776    0.0000 C   0  0  0  0  0  0  0  0  0  0  0  0
   -3.7391   -6.9134    0.0000 C   0  0  0  0  0  0  0  0  0  0  0  0
   -3.4786   -5.4362    0.0000 C   0  0  0  0  0  0  0  0  0  0  0  0
   -2.0691   -4.9232    0.0000 C   0  0  0  0  0  0  0  0  0  0  0  0
   -1.8086   -3.4460    0.0000 C   0  0  0  0  0  0  0  0  0  0  0  0
   -2.9577   -2.4818    0.0000 C   0  0  0  0  0  0  0  0  0  0  0  0
   -2.6972   -1.0046    0.0000 C   0  0  0  0  0  0  0  0  0  0  0  0
   -1.2877   -0.4915    0.0000 C   0  0  0  0  0  0  0  0  0  0  0  0
   -0.1386   -1.4557    0.0000 C   0  0  0  0  0  0  0  0  0  0  0  0
   -0.3991   -2.9329    0.0000 C   0  0  0  0  0  0  0  0  0  0  0  0
    5.8672   -2.9948    0.0000 C   0  0  0  0  0  0  0  0  0  0  0  0
    7.0163   -2.0306    0.0000 C   0  0  0  0  0  0  0  0  0  0  0  0
  1  2  1  0
  2  3  2  0
  3  4  1  0
  4  5  2  0
  5  6  1  0
  6  7  2  0
  6  8  2  0
  6  9  1  0
  9 10  1  0
 10 11  1  0
 11 12  1  0
 12 13  1  0
  9 14  1  0
 14 15  2  0
 14 16  1  0
 16 17  1  0
 17 18  2  0
 18 19  1  0
 19 20  2  0
 20 21  1  0
 21 22  2  0
 22 23  1  0
 23 24  2  0
 24 25  1  0
 25 26  2  0
 26 27  1  0
 27 28  2  0
  5 29  1  0
 29 30  2  0
 30  2  1  0
 13 11  1  0
 28 14  1  0
 22 17  1  0
 28 23  1  0
M  END
>  <Candidate_ID>  (125) 
CAND_R2_125

>  <Candidate_Name>  (125) 
DOPT-NH-glycidyl

>  <Parent_Seed_ID>  (125) 
TRAIN_090

>  <Parent_Name>  (125) 
DOPT

>  <Transformation_Code>  (125) 
NH_glycidyl

>  <Design_Family>  (125) 
P-N-S

>  <Preparation_Type>  (125) 
Co-curing

>  <Synthesis_Level>  (125) 
C

>  <Parent_Tanimoto_r3>  (125) 
0.42045454545454547

>  <Max_Train_Tanimoto_r3>  (125) 
0.42045454545454547

>  <Risk_Flags>  (125) 
large structural change from parent; candidate may be outside strict in-domain threshold; exploratory only; excluded from formal screening

$$$$
CAND_R2_126 | DIB-amino
     RDKit          2D

 51 59  0  0  0  0  0  0  0  0999 V2000
    4.3115   -8.9533    0.0000 N   0  0  0  0  0  0  0  0  0  0  0  0
    5.8078   -8.8487    0.0000 C   0  0  0  0  0  0  0  0  0  0  0  0
    6.6027   -7.5766    0.0000 N   0  0  0  0  0  0  0  0  0  0  0  0
    8.0582   -7.9395    0.0000 C   0  0  0  0  0  0  0  0  0  0  0  0
    9.2072   -6.9753    0.0000 C   0  0  0  0  0  0  0  0  0  0  0  0
    8.9468   -5.4981    0.0000 N   0  0  0  0  0  0  0  0  0  0  0  0
    7.5372   -4.9851    0.0000 C   0  0  0  0  0  0  0  0  0  0  0  0
    7.2768   -3.5078    0.0000 C   0  0  0  0  0  0  0  0  0  0  0  0
    5.8672   -2.9948    0.0000 C   0  0  0  0  0  0  0  0  0  0  0  0
    4.7181   -3.9590    0.0000 C   0  0  0  0  0  0  0  0  0  0  0  0
    3.3086   -3.4460    0.0000 N   0  0  0  0  0  0  0  0  0  0  0  0
    2.1595   -4.4101    0.0000 C   0  0  0  0  0  0  0  0  0  0  0  0
    2.4200   -5.8874    0.0000 C   0  0  0  0  0  0  0  0  0  0  0  0
    3.7682   -6.5449    0.0000 C   0  0  0  0  0  0  0  0  0  0  0  0
    3.5594   -8.0303    0.0000 N   0  0  0  0  0  0  0  0  0  0  0  0
    2.0822   -8.2908    0.0000 C   0  0  0  0  0  0  0  0  0  0  0  0
    1.3780   -6.9664    0.0000 N   0  0  0  0  0  0  0  0  0  0  0  0
    0.7500   -3.8971    0.0000 P   0  0  0  0  0  0  0  0  0  0  0  0
    0.4895   -5.3743    0.0000 O   0  0  0  0  0  0  0  0  0  0  0  0
    1.5000   -2.5981    0.0000 O   0  0  0  0  0  0  0  0  0  0  0  0
    0.7500   -1.2990    0.0000 C   0  0  0  0  0  0  0  0  0  0  0  0
    1.5000    0.0000    0.0000 C   0  0  0  0  0  0  0  0  0  0  0  0
    0.7500    1.2990    0.0000 C   0  0  0  0  0  0  0  0  0  0  0  0
   -0.7500    1.2990    0.0000 C   0  0  0  0  0  0  0  0  0  0  0  0
   -1.5000    0.0000    0.0000 C   0  0  0  0  0  0  0  0  0  0  0  0
   -0.7500   -1.2990    0.0000 C   0  0  0  0  0  0  0  0  0  0  0  0
   -1.5000   -2.5981    0.0000 C   0  0  0  0  0  0  0  0  0  0  0  0
   -3.0000   -2.5981    0.0000 C   0  0  0  0  0  0  0  0  0  0  0  0
   -3.7500   -3.8971    0.0000 C   0  0  0  0  0  0  0  0  0  0  0  0
   -3.0000   -5.1962    0.0000 C   0  0  0  0  0  0  0  0  0  0  0  0
   -1.5000   -5.1962    0.0000 C   0  0  0  0  0  0  0  0  0  0  0  0
   -0.7500   -3.8971    0.0000 C   0  0  0  0  0  0  0  0  0  0  0  0
    4.9786   -5.4362    0.0000 C   0  0  0  0  0  0  0  0  0  0  0  0
    6.3882   -5.9492    0.0000 C   0  0  0  0  0  0  0  0  0  0  0  0
   10.6168   -7.4883    0.0000 P   0  0  0  0  0  0  0  0  0  0  0  0
   10.8772   -6.0111    0.0000 O   0  0  0  0  0  0  0  0  0  0  0  0
    9.8668   -8.7874    0.0000 O   0  0  0  0  0  0  0  0  0  0  0  0
   10.6168  -10.0864    0.0000 C   0  0  0  0  0  0  0  0  0  0  0  0
    9.8668  -11.3854    0.0000 C   0  0  0  0  0  0  0  0  0  0  0  0
   10.6168  -12.6845    0.0000 C   0  0  0  0  0  0  0  0  0  0  0  0
   12.1168  -12.6845    0.0000 C   0  0  0  0  0  0  0  0  0  0  0  0
   12.8668  -11.3854    0.0000 C   0  0  0  0  0  0  0  0  0  0  0  0
   12.1168  -10.0864    0.0000 C   0  0  0  0  0  0  0  0  0  0  0  0
   12.8668   -8.7874    0.0000 C   0  0  0  0  0  0  0  0  0  0  0  0
   14.3668   -8.7874    0.0000 C   0  0  0  0  0  0  0  0  0  0  0  0
   15.1168   -7.4883    0.0000 C   0  0  0  0  0  0  0  0  0  0  0  0
   14.3668   -6.1893    0.0000 C   0  0  0  0  0  0  0  0  0  0  0  0
   12.8668   -6.1893    0.0000 C   0  0  0  0  0  0  0  0  0  0  0  0
   12.1168   -7.4883    0.0000 C   0  0  0  0  0  0  0  0  0  0  0  0
    8.1628   -9.4358    0.0000 C   0  0  0  0  0  0  0  0  0  0  0  0
    6.7720   -9.9977    0.0000 N   0  0  0  0  0  0  0  0  0  0  0  0
  1  2  1  0
  2  3  2  0
  3  4  1  0
  4  5  1  0
  5  6  1  0
  6  7  1  0
  7  8  2  0
  8  9  1  0
  9 10  2  0
 10 11  1  0
 11 12  1  0
 12 13  1  0
 13 14  2  0
 14 15  1  0
 15 16  1  0
 16 17  2  0
 12 18  1  0
 18 19  2  0
 18 20  1  0
 20 21  1  0
 21 22  2  0
 22 23  1  0
 23 24  2  0
 24 25  1  0
 25 26  2  0
 26 27  1  0
 27 28  2  0
 28 29  1  0
 29 30  2  0
 30 31  1  0
 31 32  2  0
 10 33  1  0
 33 34  2  0
  5 35  1  0
 35 36  2  0
 35 37  1  0
 37 38  1  0
 38 39  2  0
 39 40  1  0
 40 41  2  0
 41 42  1  0
 42 43  2  0
 43 44  1  0
 44 45  2  0
 45 46  1  0
 46 47  2  0
 47 48  1  0
 48 49  2  0
  4 50  2  0
 50 51  1  0
 51  2  1  0
 34  7  1  0
 49 35  1  0
 17 13  1  0
 32 18  1  0
 43 38  1  0
 49 44  1  0
 26 21  1  0
 32 27  1  0
M  END
>  <Candidate_ID>  (126) 
CAND_R2_126

>  <Candidate_Name>  (126) 
DIB-amino

>  <Parent_Seed_ID>  (126) 
TRAIN_057

>  <Parent_Name>  (126) 
DIB

>  <Transformation_Code>  (126) 
amino

>  <Design_Family>  (126) 
P-N

>  <Preparation_Type>  (126) 
Co-curing

>  <Synthesis_Level>  (126) 
B

>  <Parent_Tanimoto_r3>  (126) 
0.8181818181818182

>  <Max_Train_Tanimoto_r3>  (126) 
0.8181818181818182

>  <Risk_Flags>  (126) 
none

$$$$
CAND_R2_127 | DIB-hydroxy
     RDKit          2D

 51 59  0  0  0  0  0  0  0  0999 V2000
   10.8772   -6.0111    0.0000 O   0  0  0  0  0  0  0  0  0  0  0  0
   10.6168   -7.4883    0.0000 P   0  0  0  0  0  0  0  0  0  0  0  0
    9.2072   -6.9753    0.0000 C   0  0  0  0  0  0  0  0  0  0  0  0
    8.9468   -5.4981    0.0000 N   0  0  0  0  0  0  0  0  0  0  0  0
    7.5372   -4.9851    0.0000 C   0  0  0  0  0  0  0  0  0  0  0  0
    7.2768   -3.5078    0.0000 C   0  0  0  0  0  0  0  0  0  0  0  0
    5.8672   -2.9948    0.0000 C   0  0  0  0  0  0  0  0  0  0  0  0
    4.7181   -3.9590    0.0000 C   0  0  0  0  0  0  0  0  0  0  0  0
    3.3086   -3.4460    0.0000 N   0  0  0  0  0  0  0  0  0  0  0  0
    2.1595   -4.4101    0.0000 C   0  0  0  0  0  0  0  0  0  0  0  0
    2.4200   -5.8874    0.0000 C   0  0  0  0  0  0  0  0  0  0  0  0
    3.7682   -6.5449    0.0000 C   0  0  0  0  0  0  0  0  0  0  0  0
    3.5594   -8.0303    0.0000 N   0  0  0  0  0  0  0  0  0  0  0  0
    2.0822   -8.2908    0.0000 C   0  0  0  0  0  0  0  0  0  0  0  0
    1.4247   -9.6390    0.0000 O   0  0  0  0  0  0  0  0  0  0  0  0
    1.3780   -6.9664    0.0000 N   0  0  0  0  0  0  0  0  0  0  0  0
    0.7500   -3.8971    0.0000 P   0  0  0  0  0  0  0  0  0  0  0  0
    0.4895   -5.3743    0.0000 O   0  0  0  0  0  0  0  0  0  0  0  0
    1.5000   -2.5981    0.0000 O   0  0  0  0  0  0  0  0  0  0  0  0
    0.7500   -1.2990    0.0000 C   0  0  0  0  0  0  0  0  0  0  0  0
    1.5000    0.0000    0.0000 C   0  0  0  0  0  0  0  0  0  0  0  0
    0.7500    1.2990    0.0000 C   0  0  0  0  0  0  0  0  0  0  0  0
   -0.7500    1.2990    0.0000 C   0  0  0  0  0  0  0  0  0  0  0  0
   -1.5000    0.0000    0.0000 C   0  0  0  0  0  0  0  0  0  0  0  0
   -0.7500   -1.2990    0.0000 C   0  0  0  0  0  0  0  0  0  0  0  0
   -1.5000   -2.5981    0.0000 C   0  0  0  0  0  0  0  0  0  0  0  0
   -3.0000   -2.5981    0.0000 C   0  0  0  0  0  0  0  0  0  0  0  0
   -3.7500   -3.8971    0.0000 C   0  0  0  0  0  0  0  0  0  0  0  0
   -3.0000   -5.1962    0.0000 C   0  0  0  0  0  0  0  0  0  0  0  0
   -1.5000   -5.1962    0.0000 C   0  0  0  0  0  0  0  0  0  0  0  0
   -0.7500   -3.8971    0.0000 C   0  0  0  0  0  0  0  0  0  0  0  0
    4.9786   -5.4362    0.0000 C   0  0  0  0  0  0  0  0  0  0  0  0
    6.3882   -5.9492    0.0000 C   0  0  0  0  0  0  0  0  0  0  0  0
    8.0582   -7.9395    0.0000 C   0  0  0  0  0  0  0  0  0  0  0  0
    6.6027   -7.5766    0.0000 C   0  0  0  0  0  0  0  0  0  0  0  0
    5.8078   -8.8487    0.0000 N   0  0  0  0  0  0  0  0  0  0  0  0
    6.7720   -9.9977    0.0000 C   0  0  0  0  0  0  0  0  0  0  0  0
    8.1628   -9.4358    0.0000 N   0  0  0  0  0  0  0  0  0  0  0  0
    9.8668   -8.7874    0.0000 O   0  0  0  0  0  0  0  0  0  0  0  0
   10.6168  -10.0864    0.0000 C   0  0  0  0  0  0  0  0  0  0  0  0
    9.8668  -11.3854    0.0000 C   0  0  0  0  0  0  0  0  0  0  0  0
   10.6168  -12.6845    0.0000 C   0  0  0  0  0  0  0  0  0  0  0  0
   12.1168  -12.6845    0.0000 C   0  0  0  0  0  0  0  0  0  0  0  0
   12.8668  -11.3854    0.0000 C   0  0  0  0  0  0  0  0  0  0  0  0
   12.1168  -10.0864    0.0000 C   0  0  0  0  0  0  0  0  0  0  0  0
   12.8668   -8.7874    0.0000 C   0  0  0  0  0  0  0  0  0  0  0  0
   14.3668   -8.7874    0.0000 C   0  0  0  0  0  0  0  0  0  0  0  0
   15.1168   -7.4883    0.0000 C   0  0  0  0  0  0  0  0  0  0  0  0
   14.3668   -6.1893    0.0000 C   0  0  0  0  0  0  0  0  0  0  0  0
   12.8668   -6.1893    0.0000 C   0  0  0  0  0  0  0  0  0  0  0  0
   12.1168   -7.4883    0.0000 C   0  0  0  0  0  0  0  0  0  0  0  0
  1  2  2  0
  2  3  1  0
  3  4  1  0
  4  5  1  0
  5  6  2  0
  6  7  1  0
  7  8  2  0
  8  9  1  0
  9 10  1  0
 10 11  1  0
 11 12  2  0
 12 13  1  0
 13 14  1  0
 14 15  1  0
 14 16  2  0
 10 17  1  0
 17 18  2  0
 17 19  1  0
 19 20  1  0
 20 21  2  0
 21 22  1  0
 22 23  2  0
 23 24  1  0
 24 25  2  0
 25 26  1  0
 26 27  2  0
 27 28  1  0
 28 29  2  0
 29 30  1  0
 30 31  2  0
  8 32  1  0
 32 33  2  0
  3 34  1  0
 34 35  2  0
 35 36  1  0
 36 37  1  0
 37 38  2  0
  2 39  1  0
 39 40  1  0
 40 41  2  0
 41 42  1  0
 42 43  2  0
 43 44  1  0
 44 45  2  0
 45 46  1  0
 46 47  2  0
 47 48  1  0
 48 49  2  0
 49 50  1  0
 50 51  2  0
 51  2  1  0
 33  5  1  0
 38 34  1  0
 45 40  1  0
 51 46  1  0
 16 11  1  0
 31 17  1  0
 25 20  1  0
 31 26  1  0
M  END
>  <Candidate_ID>  (127) 
CAND_R2_127

>  <Candidate_Name>  (127) 
DIB-hydroxy

>  <Parent_Seed_ID>  (127) 
TRAIN_057

>  <Parent_Name>  (127) 
DIB

>  <Transformation_Code>  (127) 
hydroxy

>  <Design_Family>  (127) 
P-N

>  <Preparation_Type>  (127) 
Additive

>  <Synthesis_Level>  (127) 
B

>  <Parent_Tanimoto_r3>  (127) 
0.8181818181818182

>  <Max_Train_Tanimoto_r3>  (127) 
0.8181818181818182

>  <Risk_Flags>  (127) 
none

$$$$
CAND_R2_128 | DIB-hydroxymethyl
     RDKit          2D

 52 60  0  0  0  0  0  0  0  0999 V2000
   10.8772   -6.0111    0.0000 O   0  0  0  0  0  0  0  0  0  0  0  0
   10.6168   -7.4883    0.0000 P   0  0  0  0  0  0  0  0  0  0  0  0
    9.2072   -6.9753    0.0000 C   0  0  0  0  0  0  0  0  0  0  0  0
    8.9468   -5.4981    0.0000 N   0  0  0  0  0  0  0  0  0  0  0  0
    7.5372   -4.9851    0.0000 C   0  0  0  0  0  0  0  0  0  0  0  0
    7.2768   -3.5078    0.0000 C   0  0  0  0  0  0  0  0  0  0  0  0
    5.8672   -2.9948    0.0000 C   0  0  0  0  0  0  0  0  0  0  0  0
    4.7181   -3.9590    0.0000 C   0  0  0  0  0  0  0  0  0  0  0  0
    3.3086   -3.4460    0.0000 N   0  0  0  0  0  0  0  0  0  0  0  0
    2.1595   -4.4101    0.0000 C   0  0  0  0  0  0  0  0  0  0  0  0
    2.4200   -5.8874    0.0000 C   0  0  0  0  0  0  0  0  0  0  0  0
    3.7682   -6.5449    0.0000 C   0  0  0  0  0  0  0  0  0  0  0  0
    3.5594   -8.0303    0.0000 N   0  0  0  0  0  0  0  0  0  0  0  0
    2.0822   -8.2908    0.0000 C   0  0  0  0  0  0  0  0  0  0  0  0
    1.4247   -9.6390    0.0000 C   0  0  0  0  0  0  0  0  0  0  0  0
   -0.0717   -9.7436    0.0000 O   0  0  0  0  0  0  0  0  0  0  0  0
    1.3780   -6.9664    0.0000 N   0  0  0  0  0  0  0  0  0  0  0  0
    0.7500   -3.8971    0.0000 P   0  0  0  0  0  0  0  0  0  0  0  0
    0.4895   -5.3743    0.0000 O   0  0  0  0  0  0  0  0  0  0  0  0
    1.5000   -2.5981    0.0000 O   0  0  0  0  0  0  0  0  0  0  0  0
    0.7500   -1.2990    0.0000 C   0  0  0  0  0  0  0  0  0  0  0  0
    1.5000    0.0000    0.0000 C   0  0  0  0  0  0  0  0  0  0  0  0
    0.7500    1.2990    0.0000 C   0  0  0  0  0  0  0  0  0  0  0  0
   -0.7500    1.2990    0.0000 C   0  0  0  0  0  0  0  0  0  0  0  0
   -1.5000    0.0000    0.0000 C   0  0  0  0  0  0  0  0  0  0  0  0
   -0.7500   -1.2990    0.0000 C   0  0  0  0  0  0  0  0  0  0  0  0
   -1.5000   -2.5981    0.0000 C   0  0  0  0  0  0  0  0  0  0  0  0
   -3.0000   -2.5981    0.0000 C   0  0  0  0  0  0  0  0  0  0  0  0
   -3.7500   -3.8971    0.0000 C   0  0  0  0  0  0  0  0  0  0  0  0
   -3.0000   -5.1962    0.0000 C   0  0  0  0  0  0  0  0  0  0  0  0
   -1.5000   -5.1962    0.0000 C   0  0  0  0  0  0  0  0  0  0  0  0
   -0.7500   -3.8971    0.0000 C   0  0  0  0  0  0  0  0  0  0  0  0
    4.9786   -5.4362    0.0000 C   0  0  0  0  0  0  0  0  0  0  0  0
    6.3882   -5.9492    0.0000 C   0  0  0  0  0  0  0  0  0  0  0  0
    8.0582   -7.9395    0.0000 C   0  0  0  0  0  0  0  0  0  0  0  0
    6.6027   -7.5766    0.0000 C   0  0  0  0  0  0  0  0  0  0  0  0
    5.8078   -8.8487    0.0000 N   0  0  0  0  0  0  0  0  0  0  0  0
    6.7720   -9.9977    0.0000 C   0  0  0  0  0  0  0  0  0  0  0  0
    8.1628   -9.4358    0.0000 N   0  0  0  0  0  0  0  0  0  0  0  0
    9.8668   -8.7874    0.0000 O   0  0  0  0  0  0  0  0  0  0  0  0
   10.6168  -10.0864    0.0000 C   0  0  0  0  0  0  0  0  0  0  0  0
    9.8668  -11.3854    0.0000 C   0  0  0  0  0  0  0  0  0  0  0  0
   10.6168  -12.6845    0.0000 C   0  0  0  0  0  0  0  0  0  0  0  0
   12.1168  -12.6845    0.0000 C   0  0  0  0  0  0  0  0  0  0  0  0
   12.8668  -11.3854    0.0000 C   0  0  0  0  0  0  0  0  0  0  0  0
   12.1168  -10.0864    0.0000 C   0  0  0  0  0  0  0  0  0  0  0  0
   12.8668   -8.7874    0.0000 C   0  0  0  0  0  0  0  0  0  0  0  0
   14.3668   -8.7874    0.0000 C   0  0  0  0  0  0  0  0  0  0  0  0
   15.1168   -7.4883    0.0000 C   0  0  0  0  0  0  0  0  0  0  0  0
   14.3668   -6.1893    0.0000 C   0  0  0  0  0  0  0  0  0  0  0  0
   12.8668   -6.1893    0.0000 C   0  0  0  0  0  0  0  0  0  0  0  0
   12.1168   -7.4883    0.0000 C   0  0  0  0  0  0  0  0  0  0  0  0
  1  2  2  0
  2  3  1  0
  3  4  1  0
  4  5  1  0
  5  6  2  0
  6  7  1  0
  7  8  2  0
  8  9  1  0
  9 10  1  0
 10 11  1  0
 11 12  2  0
 12 13  1  0
 13 14  1  0
 14 15  1  0
 15 16  1  0
 14 17  2  0
 10 18  1  0
 18 19  2  0
 18 20  1  0
 20 21  1  0
 21 22  2  0
 22 23  1  0
 23 24  2  0
 24 25  1  0
 25 26  2  0
 26 27  1  0
 27 28  2  0
 28 29  1  0
 29 30  2  0
 30 31  1  0
 31 32  2  0
  8 33  1  0
 33 34  2  0
  3 35  1  0
 35 36  2  0
 36 37  1  0
 37 38  1  0
 38 39  2  0
  2 40  1  0
 40 41  1  0
 41 42  2  0
 42 43  1  0
 43 44  2  0
 44 45  1  0
 45 46  2  0
 46 47  1  0
 47 48  2  0
 48 49  1  0
 49 50  2  0
 50 51  1  0
 51 52  2  0
 52  2  1  0
 34  5  1  0
 39 35  1  0
 46 41  1  0
 52 47  1  0
 17 11  1  0
 32 18  1  0
 26 21  1  0
 32 27  1  0
M  END
>  <Candidate_ID>  (128) 
CAND_R2_128

>  <Candidate_Name>  (128) 
DIB-hydroxymethyl

>  <Parent_Seed_ID>  (128) 
TRAIN_057

>  <Parent_Name>  (128) 
DIB

>  <Transformation_Code>  (128) 
hydroxymethyl

>  <Design_Family>  (128) 
P-N

>  <Preparation_Type>  (128) 
Additive

>  <Synthesis_Level>  (128) 
B

>  <Parent_Tanimoto_r3>  (128) 
0.7875

>  <Max_Train_Tanimoto_r3>  (128) 
0.7875

>  <Risk_Flags>  (128) 
none

$$$$
CAND_R2_129 | DIB-carboxamide
     RDKit          2D

 53 61  0  0  0  0  0  0  0  0999 V2000
   15.7530   -7.6801    0.0000 N   0  0  0  0  0  0  0  0  0  0  0  0
   14.2567   -7.7847    0.0000 C   0  0  0  0  0  0  0  0  0  0  0  0
   13.5991   -9.1329    0.0000 O   0  0  0  0  0  0  0  0  0  0  0  0
   13.4179   -6.5412    0.0000 C   0  0  0  0  0  0  0  0  0  0  0  0
   11.9188   -6.4888    0.0000 N   0  0  0  0  0  0  0  0  0  0  0  0
   11.5054   -5.0469    0.0000 C   0  0  0  0  0  0  0  0  0  0  0  0
   10.0958   -4.5339    0.0000 C   0  0  0  0  0  0  0  0  0  0  0  0
    8.9468   -5.4981    0.0000 N   0  0  0  0  0  0  0  0  0  0  0  0
    7.5372   -4.9851    0.0000 C   0  0  0  0  0  0  0  0  0  0  0  0
    7.2768   -3.5078    0.0000 C   0  0  0  0  0  0  0  0  0  0  0  0
    5.8672   -2.9948    0.0000 C   0  0  0  0  0  0  0  0  0  0  0  0
    4.7181   -3.9590    0.0000 C   0  0  0  0  0  0  0  0  0  0  0  0
    3.3086   -3.4460    0.0000 N   0  0  0  0  0  0  0  0  0  0  0  0
    2.1595   -4.4101    0.0000 C   0  0  0  0  0  0  0  0  0  0  0  0
    2.4200   -5.8874    0.0000 C   0  0  0  0  0  0  0  0  0  0  0  0
    3.7682   -6.5449    0.0000 C   0  0  0  0  0  0  0  0  0  0  0  0
    3.5594   -8.0303    0.0000 N   0  0  0  0  0  0  0  0  0  0  0  0
    2.0822   -8.2908    0.0000 C   0  0  0  0  0  0  0  0  0  0  0  0
    1.3780   -6.9664    0.0000 N   0  0  0  0  0  0  0  0  0  0  0  0
    0.7500   -3.8971    0.0000 P   0  0  0  0  0  0  0  0  0  0  0  0
    0.4895   -5.3743    0.0000 O   0  0  0  0  0  0  0  0  0  0  0  0
    1.5000   -2.5981    0.0000 O   0  0  0  0  0  0  0  0  0  0  0  0
    0.7500   -1.2990    0.0000 C   0  0  0  0  0  0  0  0  0  0  0  0
    1.5000    0.0000    0.0000 C   0  0  0  0  0  0  0  0  0  0  0  0
    0.7500    1.2990    0.0000 C   0  0  0  0  0  0  0  0  0  0  0  0
   -0.7500    1.2990    0.0000 C   0  0  0  0  0  0  0  0  0  0  0  0
   -1.5000    0.0000    0.0000 C   0  0  0  0  0  0  0  0  0  0  0  0
   -0.7500   -1.2990    0.0000 C   0  0  0  0  0  0  0  0  0  0  0  0
   -1.5000   -2.5981    0.0000 C   0  0  0  0  0  0  0  0  0  0  0  0
   -3.0000   -2.5981    0.0000 C   0  0  0  0  0  0  0  0  0  0  0  0
   -3.7500   -3.8971    0.0000 C   0  0  0  0  0  0  0  0  0  0  0  0
   -3.0000   -5.1962    0.0000 C   0  0  0  0  0  0  0  0  0  0  0  0
   -1.5000   -5.1962    0.0000 C   0  0  0  0  0  0  0  0  0  0  0  0
   -0.7500   -3.8971    0.0000 C   0  0  0  0  0  0  0  0  0  0  0  0
    4.9786   -5.4362    0.0000 C   0  0  0  0  0  0  0  0  0  0  0  0
    6.3882   -5.9492    0.0000 C   0  0  0  0  0  0  0  0  0  0  0  0
    9.8354   -3.0567    0.0000 P   0  0  0  0  0  0  0  0  0  0  0  0
    8.4258   -3.5697    0.0000 O   0  0  0  0  0  0  0  0  0  0  0  0
   11.3354   -3.0567    0.0000 O   0  0  0  0  0  0  0  0  0  0  0  0
   12.0854   -1.7577    0.0000 C   0  0  0  0  0  0  0  0  0  0  0  0
   13.5854   -1.7577    0.0000 C   0  0  0  0  0  0  0  0  0  0  0  0
   14.3354   -0.4586    0.0000 C   0  0  0  0  0  0  0  0  0  0  0  0
   13.5854    0.8404    0.0000 C   0  0  0  0  0  0  0  0  0  0  0  0
   12.0854    0.8404    0.0000 C   0  0  0  0  0  0  0  0  0  0  0  0
   11.3354   -0.4586    0.0000 C   0  0  0  0  0  0  0  0  0  0  0  0
    9.8354   -0.4586    0.0000 C   0  0  0  0  0  0  0  0  0  0  0  0
    9.0854    0.8404    0.0000 C   0  0  0  0  0  0  0  0  0  0  0  0
    7.5854    0.8404    0.0000 C   0  0  0  0  0  0  0  0  0  0  0  0
    6.8354   -0.4586    0.0000 C   0  0  0  0  0  0  0  0  0  0  0  0
    7.5854   -1.7577    0.0000 C   0  0  0  0  0  0  0  0  0  0  0  0
    9.0854   -1.7577    0.0000 C   0  0  0  0  0  0  0  0  0  0  0  0
   12.7489   -4.2081    0.0000 C   0  0  0  0  0  0  0  0  0  0  0  0
   13.9309   -5.1316    0.0000 N   0  0  0  0  0  0  0  0  0  0  0  0
  1  2  1  0
  2  3  2  0
  2  4  1  0
  4  5  2  0
  5  6  1  0
  6  7  1  0
  7  8  1  0
  8  9  1  0
  9 10  2  0
 10 11  1  0
 11 12  2  0
 12 13  1  0
 13 14  1  0
 14 15  1  0
 15 16  2  0
 16 17  1  0
 17 18  1  0
 18 19  2  0
 14 20  1  0
 20 21  2  0
 20 22  1  0
 22 23  1  0
 23 24  2  0
 24 25  1  0
 25 26  2  0
 26 27  1  0
 27 28  2  0
 28 29  1  0
 29 30  2  0
 30 31  1  0
 31 32  2  0
 32 33  1  0
 33 34  2  0
 12 35  1  0
 35 36  2  0
  7 37  1  0
 37 38  2  0
 37 39  1  0
 39 40  1  0
 40 41  2  0
 41 42  1  0
 42 43  2  0
 43 44  1  0
 44 45  2  0
 45 46  1  0
 46 47  2  0
 47 48  1  0
 48 49  2  0
 49 50  1  0
 50 51  2  0
  6 52  2  0
 52 53  1  0
 53  4  1  0
 36  9  1  0
 51 37  1  0
 19 15  1  0
 34 20  1  0
 45 40  1  0
 51 46  1  0
 28 23  1  0
 34 29  1  0
M  END
>  <Candidate_ID>  (129) 
CAND_R2_129

>  <Candidate_Name>  (129) 
DIB-carboxamide

>  <Parent_Seed_ID>  (129) 
TRAIN_057

>  <Parent_Name>  (129) 
DIB

>  <Transformation_Code>  (129) 
carboxamide

>  <Design_Family>  (129) 
P-N

>  <Preparation_Type>  (129) 
Additive

>  <Synthesis_Level>  (129) 
B

>  <Parent_Tanimoto_r3>  (129) 
0.7682926829268293

>  <Max_Train_Tanimoto_r3>  (129) 
0.7682926829268293

>  <Risk_Flags>  (129) 
none

$$$$
CAND_R2_130 | DIB-boronic-acid
     RDKit          2D

 53 61  0  0  0  0  0  0  0  0999 V2000
   10.8772   -6.0111    0.0000 O   0  0  0  0  0  0  0  0  0  0  0  0
   10.6168   -7.4883    0.0000 P   0  0  0  0  0  0  0  0  0  0  0  0
    9.2072   -6.9753    0.0000 C   0  0  0  0  0  0  0  0  0  0  0  0
    8.9468   -5.4981    0.0000 N   0  0  0  0  0  0  0  0  0  0  0  0
    7.5372   -4.9851    0.0000 C   0  0  0  0  0  0  0  0  0  0  0  0
    7.2768   -3.5078    0.0000 C   0  0  0  0  0  0  0  0  0  0  0  0
    5.8672   -2.9948    0.0000 C   0  0  0  0  0  0  0  0  0  0  0  0
    4.7181   -3.9590    0.0000 C   0  0  0  0  0  0  0  0  0  0  0  0
    3.3086   -3.4460    0.0000 N   0  0  0  0  0  0  0  0  0  0  0  0
    2.1595   -4.4101    0.0000 C   0  0  0  0  0  0  0  0  0  0  0  0
    2.4200   -5.8874    0.0000 C   0  0  0  0  0  0  0  0  0  0  0  0
    3.7682   -6.5449    0.0000 C   0  0  0  0  0  0  0  0  0  0  0  0
    3.5594   -8.0303    0.0000 N   0  0  0  0  0  0  0  0  0  0  0  0
    2.0822   -8.2908    0.0000 C   0  0  0  0  0  0  0  0  0  0  0  0
    1.4247   -9.6390    0.0000 B   0  0  0  0  0  0  0  0  0  0  0  0
   -0.0717   -9.7436    0.0000 O   0  0  0  0  0  0  0  0  0  0  0  0
    2.2635  -10.8825    0.0000 O   0  0  0  0  0  0  0  0  0  0  0  0
    1.3780   -6.9664    0.0000 N   0  0  0  0  0  0  0  0  0  0  0  0
    0.7500   -3.8971    0.0000 P   0  0  0  0  0  0  0  0  0  0  0  0
    0.4895   -5.3743    0.0000 O   0  0  0  0  0  0  0  0  0  0  0  0
    1.5000   -2.5981    0.0000 O   0  0  0  0  0  0  0  0  0  0  0  0
    0.7500   -1.2990    0.0000 C   0  0  0  0  0  0  0  0  0  0  0  0
    1.5000    0.0000    0.0000 C   0  0  0  0  0  0  0  0  0  0  0  0
    0.7500    1.2990    0.0000 C   0  0  0  0  0  0  0  0  0  0  0  0
   -0.7500    1.2990    0.0000 C   0  0  0  0  0  0  0  0  0  0  0  0
   -1.5000    0.0000    0.0000 C   0  0  0  0  0  0  0  0  0  0  0  0
   -0.7500   -1.2990    0.0000 C   0  0  0  0  0  0  0  0  0  0  0  0
   -1.5000   -2.5981    0.0000 C   0  0  0  0  0  0  0  0  0  0  0  0
   -3.0000   -2.5981    0.0000 C   0  0  0  0  0  0  0  0  0  0  0  0
   -3.7500   -3.8971    0.0000 C   0  0  0  0  0  0  0  0  0  0  0  0
   -3.0000   -5.1962    0.0000 C   0  0  0  0  0  0  0  0  0  0  0  0
   -1.5000   -5.1962    0.0000 C   0  0  0  0  0  0  0  0  0  0  0  0
   -0.7500   -3.8971    0.0000 C   0  0  0  0  0  0  0  0  0  0  0  0
    4.9786   -5.4362    0.0000 C   0  0  0  0  0  0  0  0  0  0  0  0
    6.3882   -5.9492    0.0000 C   0  0  0  0  0  0  0  0  0  0  0  0
    8.0582   -7.9395    0.0000 C   0  0  0  0  0  0  0  0  0  0  0  0
    6.6027   -7.5766    0.0000 C   0  0  0  0  0  0  0  0  0  0  0  0
    5.8078   -8.8487    0.0000 N   0  0  0  0  0  0  0  0  0  0  0  0
    6.7720   -9.9977    0.0000 C   0  0  0  0  0  0  0  0  0  0  0  0
    8.1628   -9.4358    0.0000 N   0  0  0  0  0  0  0  0  0  0  0  0
    9.8668   -8.7874    0.0000 O   0  0  0  0  0  0  0  0  0  0  0  0
   10.6168  -10.0864    0.0000 C   0  0  0  0  0  0  0  0  0  0  0  0
    9.8668  -11.3854    0.0000 C   0  0  0  0  0  0  0  0  0  0  0  0
   10.6168  -12.6845    0.0000 C   0  0  0  0  0  0  0  0  0  0  0  0
   12.1168  -12.6845    0.0000 C   0  0  0  0  0  0  0  0  0  0  0  0
   12.8668  -11.3854    0.0000 C   0  0  0  0  0  0  0  0  0  0  0  0
   12.1168  -10.0864    0.0000 C   0  0  0  0  0  0  0  0  0  0  0  0
   12.8668   -8.7874    0.0000 C   0  0  0  0  0  0  0  0  0  0  0  0
   14.3668   -8.7874    0.0000 C   0  0  0  0  0  0  0  0  0  0  0  0
   15.1168   -7.4883    0.0000 C   0  0  0  0  0  0  0  0  0  0  0  0
   14.3668   -6.1893    0.0000 C   0  0  0  0  0  0  0  0  0  0  0  0
   12.8668   -6.1893    0.0000 C   0  0  0  0  0  0  0  0  0  0  0  0
   12.1168   -7.4883    0.0000 C   0  0  0  0  0  0  0  0  0  0  0  0
  1  2  2  0
  2  3  1  0
  3  4  1  0
  4  5  1  0
  5  6  2  0
  6  7  1  0
  7  8  2  0
  8  9  1  0
  9 10  1  0
 10 11  1  0
 11 12  2  0
 12 13  1  0
 13 14  1  0
 14 15  1  0
 15 16  1  0
 15 17  1  0
 14 18  2  0
 10 19  1  0
 19 20  2  0
 19 21  1  0
 21 22  1  0
 22 23  2  0
 23 24  1  0
 24 25  2  0
 25 26  1  0
 26 27  2  0
 27 28  1  0
 28 29  2  0
 29 30  1  0
 30 31  2  0
 31 32  1  0
 32 33  2  0
  8 34  1  0
 34 35  2  0
  3 36  1  0
 36 37  2  0
 37 38  1  0
 38 39  1  0
 39 40  2  0
  2 41  1  0
 41 42  1  0
 42 43  2  0
 43 44  1  0
 44 45  2  0
 45 46  1  0
 46 47  2  0
 47 48  1  0
 48 49  2  0
 49 50  1  0
 50 51  2  0
 51 52  1  0
 52 53  2  0
 53  2  1  0
 35  5  1  0
 40 36  1  0
 47 42  1  0
 53 48  1  0
 18 11  1  0
 33 19  1  0
 27 22  1  0
 33 28  1  0
M  END
>  <Candidate_ID>  (130) 
CAND_R2_130

>  <Candidate_Name>  (130) 
DIB-boronic-acid

>  <Parent_Seed_ID>  (130) 
TRAIN_057

>  <Parent_Name>  (130) 
DIB

>  <Transformation_Code>  (130) 
boronic_acid

>  <Design_Family>  (130) 
P-N-B

>  <Preparation_Type>  (130) 
Additive

>  <Synthesis_Level>  (130) 
B

>  <Parent_Tanimoto_r3>  (130) 
0.7875

>  <Max_Train_Tanimoto_r3>  (130) 
0.7875

>  <Risk_Flags>  (130) 
none

$$$$
CAND_R2_131 | DIB-pinacol-boronate
     RDKit          2D

 59 68  0  0  0  0  0  0  0  0999 V2000
   16.6714  -11.1585    0.0000 C   0  0  0  0  0  0  0  0  0  0  0  0
   15.2806  -11.7204    0.0000 C   0  0  0  0  0  0  0  0  0  0  0  0
   15.9849  -13.0448    0.0000 C   0  0  0  0  0  0  0  0  0  0  0  0
   14.8672  -10.2785    0.0000 O   0  0  0  0  0  0  0  0  0  0  0  0
   13.3681  -10.2261    0.0000 B   0  0  0  0  0  0  0  0  0  0  0  0
   12.5293   -8.9826    0.0000 C   0  0  0  0  0  0  0  0  0  0  0  0
   11.0302   -8.9302    0.0000 N   0  0  0  0  0  0  0  0  0  0  0  0
   10.6168   -7.4883    0.0000 C   0  0  0  0  0  0  0  0  0  0  0  0
    9.2072   -6.9753    0.0000 C   0  0  0  0  0  0  0  0  0  0  0  0
    8.9468   -5.4981    0.0000 N   0  0  0  0  0  0  0  0  0  0  0  0
   10.0958   -4.5339    0.0000 C   0  0  0  0  0  0  0  0  0  0  0  0
    9.8354   -3.0567    0.0000 C   0  0  0  0  0  0  0  0  0  0  0  0
   10.9844   -2.0925    0.0000 C   0  0  0  0  0  0  0  0  0  0  0  0
   12.3940   -2.6055    0.0000 C   0  0  0  0  0  0  0  0  0  0  0  0
   13.5430   -1.6414    0.0000 N   0  0  0  0  0  0  0  0  0  0  0  0
   14.9526   -2.1544    0.0000 C   0  0  0  0  0  0  0  0  0  0  0  0
   15.2130   -3.6316    0.0000 C   0  0  0  0  0  0  0  0  0  0  0  0
   14.1711   -4.7106    0.0000 C   0  0  0  0  0  0  0  0  0  0  0  0
   14.8753   -6.0350    0.0000 N   0  0  0  0  0  0  0  0  0  0  0  0
   16.3525   -5.7746    0.0000 C   0  0  0  0  0  0  0  0  0  0  0  0
   16.5612   -4.2892    0.0000 N   0  0  0  0  0  0  0  0  0  0  0  0
   16.1016   -1.1902    0.0000 P   0  0  0  0  0  0  0  0  0  0  0  0
   16.8516   -2.4892    0.0000 O   0  0  0  0  0  0  0  0  0  0  0  0
   14.9526   -0.2260    0.0000 O   0  0  0  0  0  0  0  0  0  0  0  0
   15.2130    1.2512    0.0000 C   0  0  0  0  0  0  0  0  0  0  0  0
   14.0640    2.2154    0.0000 C   0  0  0  0  0  0  0  0  0  0  0  0
   14.3244    3.6926    0.0000 C   0  0  0  0  0  0  0  0  0  0  0  0
   15.7340    4.2056    0.0000 C   0  0  0  0  0  0  0  0  0  0  0  0
   16.8831    3.2414    0.0000 C   0  0  0  0  0  0  0  0  0  0  0  0
   16.6226    1.7642    0.0000 C   0  0  0  0  0  0  0  0  0  0  0  0
   17.7716    0.8000    0.0000 C   0  0  0  0  0  0  0  0  0  0  0  0
   19.1812    1.3131    0.0000 C   0  0  0  0  0  0  0  0  0  0  0  0
   20.3303    0.3489    0.0000 C   0  0  0  0  0  0  0  0  0  0  0  0
   20.0698   -1.1283    0.0000 C   0  0  0  0  0  0  0  0  0  0  0  0
   18.6602   -1.6414    0.0000 C   0  0  0  0  0  0  0  0  0  0  0  0
   17.5112   -0.6772    0.0000 C   0  0  0  0  0  0  0  0  0  0  0  0
   12.6544   -4.0828    0.0000 C   0  0  0  0  0  0  0  0  0  0  0  0
   11.5054   -5.0469    0.0000 C   0  0  0  0  0  0  0  0  0  0  0  0
    8.0582   -7.9395    0.0000 P   0  0  0  0  0  0  0  0  0  0  0  0
    7.3082   -6.6404    0.0000 O   0  0  0  0  0  0  0  0  0  0  0  0
    9.2072   -8.9037    0.0000 O   0  0  0  0  0  0  0  0  0  0  0  0
    8.9468  -10.3809    0.0000 C   0  0  0  0  0  0  0  0  0  0  0  0
   10.0958  -11.3451    0.0000 C   0  0  0  0  0  0  0  0  0  0  0  0
    9.8354  -12.8223    0.0000 C   0  0  0  0  0  0  0  0  0  0  0  0
    8.4258  -13.3353    0.0000 C   0  0  0  0  0  0  0  0  0  0  0  0
    7.2768  -12.3711    0.0000 C   0  0  0  0  0  0  0  0  0  0  0  0
    7.5372  -10.8939    0.0000 C   0  0  0  0  0  0  0  0  0  0  0  0
    6.3882   -9.9297    0.0000 C   0  0  0  0  0  0  0  0  0  0  0  0
    4.9786  -10.4427    0.0000 C   0  0  0  0  0  0  0  0  0  0  0  0
    3.8296   -9.4786    0.0000 C   0  0  0  0  0  0  0  0  0  0  0  0
    4.0900   -8.0014    0.0000 C   0  0  0  0  0  0  0  0  0  0  0  0
    5.4996   -7.4883    0.0000 C   0  0  0  0  0  0  0  0  0  0  0  0
    6.6486   -8.4525    0.0000 C   0  0  0  0  0  0  0  0  0  0  0  0
   11.8603   -6.6495    0.0000 C   0  0  0  0  0  0  0  0  0  0  0  0
   13.0423   -7.5730    0.0000 N   0  0  0  0  0  0  0  0  0  0  0  0
   12.8551  -11.6357    0.0000 O   0  0  0  0  0  0  0  0  0  0  0  0
   14.0371  -12.5592    0.0000 C   0  0  0  0  0  0  0  0  0  0  0  0
   15.0013  -13.7082    0.0000 C   0  0  0  0  0  0  0  0  0  0  0  0
   12.9951  -13.6382    0.0000 C   0  0  0  0  0  0  0  0  0  0  0  0
  1  2  1  0
  2  3  1  0
  2  4  1  0
  4  5  1  0
  5  6  1  0
  6  7  2  0
  7  8  1  0
  8  9  1  0
  9 10  1  0
 10 11  1  0
 11 12  2  0
 12 13  1  0
 13 14  2  0
 14 15  1  0
 15 16  1  0
 16 17  1  0
 17 18  2  0
 18 19  1  0
 19 20  1  0
 20 21  2  0
 16 22  1  0
 22 23  2  0
 22 24  1  0
 24 25  1  0
 25 26  2  0
 26 27  1  0
 27 28  2  0
 28 29  1  0
 29 30  2  0
 30 31  1  0
 31 32  2  0
 32 33  1  0
 33 34  2  0
 34 35  1  0
 35 36  2  0
 14 37  1  0
 37 38  2  0
  9 39  1  0
 39 40  2  0
 39 41  1  0
 41 42  1  0
 42 43  2  0
 43 44  1  0
 44 45  2  0
 45 46  1  0
 46 47  2  0
 47 48  1  0
 48 49  2  0
 49 50  1  0
 50 51  2  0
 51 52  1  0
 52 53  2  0
  8 54  2  0
 54 55  1  0
  5 56  1  0
 56 57  1  0
 57 58  1  0
 57 59  1  0
 57  2  1  0
 55  6  1  0
 38 11  1  0
 53 39  1  0
 21 17  1  0
 36 22  1  0
 47 42  1  0
 53 48  1  0
 30 25  1  0
 36 31  1  0
M  END
>  <Candidate_ID>  (131) 
CAND_R2_131

>  <Candidate_Name>  (131) 
DIB-pinacol-boronate

>  <Parent_Seed_ID>  (131) 
TRAIN_057

>  <Parent_Name>  (131) 
DIB

>  <Transformation_Code>  (131) 
pinacol_boronate

>  <Design_Family>  (131) 
P-N-B

>  <Preparation_Type>  (131) 
Additive

>  <Synthesis_Level>  (131) 
B

>  <Parent_Tanimoto_r3>  (131) 
0.7

>  <Max_Train_Tanimoto_r3>  (131) 
0.7

>  <Risk_Flags>  (131) 
none

$$$$
CAND_R2_132 | DIB-trimethoxysilyl
     RDKit          2D

 57 65  0  0  0  0  0  0  0  0999 V2000
   16.2890   -5.2907    0.0000 C   0  0  0  0  0  0  0  0  0  0  0  0
   15.9261   -6.7461    0.0000 O   0  0  0  0  0  0  0  0  0  0  0  0
   14.4842   -7.1596    0.0000 Si  0  0  0  0  0  4  0  0  0  0  0  0
   14.8977   -8.6015    0.0000 O   0  0  0  0  0  0  0  0  0  0  0  0
   16.3531   -8.9643    0.0000 C   0  0  0  0  0  0  0  0  0  0  0  0
   14.0708   -5.7177    0.0000 O   0  0  0  0  0  0  0  0  0  0  0  0
   15.1128   -4.6387    0.0000 C   0  0  0  0  0  0  0  0  0  0  0  0
   13.0423   -7.5730    0.0000 C   0  0  0  0  0  0  0  0  0  0  0  0
   11.8603   -6.6495    0.0000 N   0  0  0  0  0  0  0  0  0  0  0  0
   10.6168   -7.4883    0.0000 C   0  0  0  0  0  0  0  0  0  0  0  0
    9.2072   -6.9753    0.0000 C   0  0  0  0  0  0  0  0  0  0  0  0
    8.9468   -5.4981    0.0000 N   0  0  0  0  0  0  0  0  0  0  0  0
    7.5372   -4.9851    0.0000 C   0  0  0  0  0  0  0  0  0  0  0  0
    6.3882   -5.9492    0.0000 C   0  0  0  0  0  0  0  0  0  0  0  0
    4.9786   -5.4362    0.0000 C   0  0  0  0  0  0  0  0  0  0  0  0
    4.7181   -3.9590    0.0000 C   0  0  0  0  0  0  0  0  0  0  0  0
    3.3086   -3.4460    0.0000 N   0  0  0  0  0  0  0  0  0  0  0  0
    3.0481   -1.9688    0.0000 C   0  0  0  0  0  0  0  0  0  0  0  0
    4.1972   -1.0046    0.0000 C   0  0  0  0  0  0  0  0  0  0  0  0
    5.6526   -1.3675    0.0000 C   0  0  0  0  0  0  0  0  0  0  0  0
    6.4475   -0.0954    0.0000 N   0  0  0  0  0  0  0  0  0  0  0  0
    5.4833    1.0537    0.0000 C   0  0  0  0  0  0  0  0  0  0  0  0
    4.0926    0.4918    0.0000 N   0  0  0  0  0  0  0  0  0  0  0  0
    1.6386   -1.4557    0.0000 P   0  0  0  0  0  0  0  0  0  0  0  0
    2.3886   -0.1567    0.0000 O   0  0  0  0  0  0  0  0  0  0  0  0
    1.3781   -2.9329    0.0000 O   0  0  0  0  0  0  0  0  0  0  0  0
   -0.0314   -3.4460    0.0000 C   0  0  0  0  0  0  0  0  0  0  0  0
   -0.2919   -4.9232    0.0000 C   0  0  0  0  0  0  0  0  0  0  0  0
   -1.7014   -5.4362    0.0000 C   0  0  0  0  0  0  0  0  0  0  0  0
   -2.8505   -4.4720    0.0000 C   0  0  0  0  0  0  0  0  0  0  0  0
   -2.5900   -2.9948    0.0000 C   0  0  0  0  0  0  0  0  0  0  0  0
   -1.1805   -2.4818    0.0000 C   0  0  0  0  0  0  0  0  0  0  0  0
   -0.9200   -1.0046    0.0000 C   0  0  0  0  0  0  0  0  0  0  0  0
   -2.0691   -0.0404    0.0000 C   0  0  0  0  0  0  0  0  0  0  0  0
   -1.8086    1.4368    0.0000 C   0  0  0  0  0  0  0  0  0  0  0  0
   -0.3991    1.9499    0.0000 C   0  0  0  0  0  0  0  0  0  0  0  0
    0.7500    0.9857    0.0000 C   0  0  0  0  0  0  0  0  0  0  0  0
    0.4895   -0.4915    0.0000 C   0  0  0  0  0  0  0  0  0  0  0  0
    5.8672   -2.9948    0.0000 C   0  0  0  0  0  0  0  0  0  0  0  0
    7.2768   -3.5078    0.0000 C   0  0  0  0  0  0  0  0  0  0  0  0
    8.0582   -7.9395    0.0000 P   0  0  0  0  0  0  0  0  0  0  0  0
    7.3082   -6.6404    0.0000 O   0  0  0  0  0  0  0  0  0  0  0  0
    9.2072   -8.9037    0.0000 O   0  0  0  0  0  0  0  0  0  0  0  0
    8.9468  -10.3809    0.0000 C   0  0  0  0  0  0  0  0  0  0  0  0
   10.0958  -11.3451    0.0000 C   0  0  0  0  0  0  0  0  0  0  0  0
    9.8354  -12.8223    0.0000 C   0  0  0  0  0  0  0  0  0  0  0  0
    8.4258  -13.3353    0.0000 C   0  0  0  0  0  0  0  0  0  0  0  0
    7.2768  -12.3711    0.0000 C   0  0  0  0  0  0  0  0  0  0  0  0
    7.5372  -10.8939    0.0000 C   0  0  0  0  0  0  0  0  0  0  0  0
    6.3882   -9.9297    0.0000 C   0  0  0  0  0  0  0  0  0  0  0  0
    4.9786  -10.4427    0.0000 C   0  0  0  0  0  0  0  0  0  0  0  0
    3.8296   -9.4786    0.0000 C   0  0  0  0  0  0  0  0  0  0  0  0
    4.0900   -8.0014    0.0000 C   0  0  0  0  0  0  0  0  0  0  0  0
    5.4996   -7.4883    0.0000 C   0  0  0  0  0  0  0  0  0  0  0  0
    6.6486   -8.4525    0.0000 C   0  0  0  0  0  0  0  0  0  0  0  0
   11.0302   -8.9302    0.0000 C   0  0  0  0  0  0  0  0  0  0  0  0
   12.5293   -8.9826    0.0000 N   0  0  0  0  0  0  0  0  0  0  0  0
  1  2  1  0
  2  3  1  0
  3  4  1  0
  4  5  1  0
  3  6  1  0
  6  7  1  0
  3  8  1  0
  8  9  2  0
  9 10  1  0
 10 11  1  0
 11 12  1  0
 12 13  1  0
 13 14  2  0
 14 15  1  0
 15 16  2  0
 16 17  1  0
 17 18  1  0
 18 19  1  0
 19 20  2  0
 20 21  1  0
 21 22  1  0
 22 23  2  0
 18 24  1  0
 24 25  2  0
 24 26  1  0
 26 27  1  0
 27 28  2  0
 28 29  1  0
 29 30  2  0
 30 31  1  0
 31 32  2  0
 32 33  1  0
 33 34  2  0
 34 35  1  0
 35 36  2  0
 36 37  1  0
 37 38  2  0
 16 39  1  0
 39 40  2  0
 11 41  1  0
 41 42  2  0
 41 43  1  0
 43 44  1  0
 44 45  2  0
 45 46  1  0
 46 47  2  0
 47 48  1  0
 48 49  2  0
 49 50  1  0
 50 51  2  0
 51 52  1  0
 52 53  2  0
 53 54  1  0
 54 55  2  0
 10 56  2  0
 56 57  1  0
 57  8  1  0
 40 13  1  0
 55 41  1  0
 23 19  1  0
 38 24  1  0
 49 44  1  0
 55 50  1  0
 32 27  1  0
 38 33  1  0
M  END
>  <Candidate_ID>  (132) 
CAND_R2_132

>  <Candidate_Name>  (132) 
DIB-trimethoxysilyl

>  <Parent_Seed_ID>  (132) 
TRAIN_057

>  <Parent_Name>  (132) 
DIB

>  <Transformation_Code>  (132) 
trimethoxysilyl

>  <Design_Family>  (132) 
P-N-Si

>  <Preparation_Type>  (132) 
Additive + Secondary Crosslinking

>  <Synthesis_Level>  (132) 
B

>  <Parent_Tanimoto_r3>  (132) 
0.75

>  <Max_Train_Tanimoto_r3>  (132) 
0.75

>  <Risk_Flags>  (132) 
none

$$$$
CAND_R2_133 | DIB-triethoxysilyl
     RDKit          2D

 60 68  0  0  0  0  0  0  0  0999 V2000
   17.7309   -4.8772    0.0000 C   0  0  0  0  0  0  0  0  0  0  0  0
   16.2890   -5.2907    0.0000 C   0  0  0  0  0  0  0  0  0  0  0  0
   15.9261   -6.7461    0.0000 O   0  0  0  0  0  0  0  0  0  0  0  0
   14.4842   -7.1596    0.0000 Si  0  0  0  0  0  4  0  0  0  0  0  0
   14.8977   -8.6015    0.0000 O   0  0  0  0  0  0  0  0  0  0  0  0
   16.3531   -8.9643    0.0000 C   0  0  0  0  0  0  0  0  0  0  0  0
   16.7666  -10.4062    0.0000 C   0  0  0  0  0  0  0  0  0  0  0  0
   14.0708   -5.7177    0.0000 O   0  0  0  0  0  0  0  0  0  0  0  0
   15.1128   -4.6387    0.0000 C   0  0  0  0  0  0  0  0  0  0  0  0
   14.6993   -3.1968    0.0000 C   0  0  0  0  0  0  0  0  0  0  0  0
   13.0423   -7.5730    0.0000 C   0  0  0  0  0  0  0  0  0  0  0  0
   11.8603   -6.6495    0.0000 N   0  0  0  0  0  0  0  0  0  0  0  0
   10.6168   -7.4883    0.0000 C   0  0  0  0  0  0  0  0  0  0  0  0
    9.2072   -6.9753    0.0000 C   0  0  0  0  0  0  0  0  0  0  0  0
    8.9468   -5.4981    0.0000 N   0  0  0  0  0  0  0  0  0  0  0  0
    7.5372   -4.9851    0.0000 C   0  0  0  0  0  0  0  0  0  0  0  0
    6.3882   -5.9492    0.0000 C   0  0  0  0  0  0  0  0  0  0  0  0
    4.9786   -5.4362    0.0000 C   0  0  0  0  0  0  0  0  0  0  0  0
    4.7181   -3.9590    0.0000 C   0  0  0  0  0  0  0  0  0  0  0  0
    3.3086   -3.4460    0.0000 N   0  0  0  0  0  0  0  0  0  0  0  0
    3.0481   -1.9688    0.0000 C   0  0  0  0  0  0  0  0  0  0  0  0
    4.1972   -1.0046    0.0000 C   0  0  0  0  0  0  0  0  0  0  0  0
    5.6526   -1.3675    0.0000 C   0  0  0  0  0  0  0  0  0  0  0  0
    6.4475   -0.0954    0.0000 N   0  0  0  0  0  0  0  0  0  0  0  0
    5.4833    1.0537    0.0000 C   0  0  0  0  0  0  0  0  0  0  0  0
    4.0926    0.4918    0.0000 N   0  0  0  0  0  0  0  0  0  0  0  0
    1.6386   -1.4557    0.0000 P   0  0  0  0  0  0  0  0  0  0  0  0
    2.3886   -0.1567    0.0000 O   0  0  0  0  0  0  0  0  0  0  0  0
    1.3781   -2.9329    0.0000 O   0  0  0  0  0  0  0  0  0  0  0  0
   -0.0314   -3.4460    0.0000 C   0  0  0  0  0  0  0  0  0  0  0  0
   -0.2919   -4.9232    0.0000 C   0  0  0  0  0  0  0  0  0  0  0  0
   -1.7014   -5.4362    0.0000 C   0  0  0  0  0  0  0  0  0  0  0  0
   -2.8505   -4.4720    0.0000 C   0  0  0  0  0  0  0  0  0  0  0  0
   -2.5900   -2.9948    0.0000 C   0  0  0  0  0  0  0  0  0  0  0  0
   -1.1805   -2.4818    0.0000 C   0  0  0  0  0  0  0  0  0  0  0  0
   -0.9200   -1.0046    0.0000 C   0  0  0  0  0  0  0  0  0  0  0  0
   -2.0691   -0.0404    0.0000 C   0  0  0  0  0  0  0  0  0  0  0  0
   -1.8086    1.4368    0.0000 C   0  0  0  0  0  0  0  0  0  0  0  0
   -0.3991    1.9499    0.0000 C   0  0  0  0  0  0  0  0  0  0  0  0
    0.7500    0.9857    0.0000 C   0  0  0  0  0  0  0  0  0  0  0  0
    0.4895   -0.4915    0.0000 C   0  0  0  0  0  0  0  0  0  0  0  0
    5.8672   -2.9948    0.0000 C   0  0  0  0  0  0  0  0  0  0  0  0
    7.2768   -3.5078    0.0000 C   0  0  0  0  0  0  0  0  0  0  0  0
    8.0582   -7.9395    0.0000 P   0  0  0  0  0  0  0  0  0  0  0  0
    7.3082   -6.6404    0.0000 O   0  0  0  0  0  0  0  0  0  0  0  0
    9.2072   -8.9037    0.0000 O   0  0  0  0  0  0  0  0  0  0  0  0
    8.9468  -10.3809    0.0000 C   0  0  0  0  0  0  0  0  0  0  0  0
   10.0958  -11.3451    0.0000 C   0  0  0  0  0  0  0  0  0  0  0  0
    9.8354  -12.8223    0.0000 C   0  0  0  0  0  0  0  0  0  0  0  0
    8.4258  -13.3353    0.0000 C   0  0  0  0  0  0  0  0  0  0  0  0
    7.2768  -12.3711    0.0000 C   0  0  0  0  0  0  0  0  0  0  0  0
    7.5372  -10.8939    0.0000 C   0  0  0  0  0  0  0  0  0  0  0  0
    6.3882   -9.9297    0.0000 C   0  0  0  0  0  0  0  0  0  0  0  0
    4.9786  -10.4427    0.0000 C   0  0  0  0  0  0  0  0  0  0  0  0
    3.8296   -9.4786    0.0000 C   0  0  0  0  0  0  0  0  0  0  0  0
    4.0900   -8.0014    0.0000 C   0  0  0  0  0  0  0  0  0  0  0  0
    5.4996   -7.4883    0.0000 C   0  0  0  0  0  0  0  0  0  0  0  0
    6.6486   -8.4525    0.0000 C   0  0  0  0  0  0  0  0  0  0  0  0
   11.0302   -8.9302    0.0000 C   0  0  0  0  0  0  0  0  0  0  0  0
   12.5293   -8.9826    0.0000 N   0  0  0  0  0  0  0  0  0  0  0  0
  1  2  1  0
  2  3  1  0
  3  4  1  0
  4  5  1  0
  5  6  1  0
  6  7  1  0
  4  8  1  0
  8  9  1  0
  9 10  1  0
  4 11  1  0
 11 12  2  0
 12 13  1  0
 13 14  1  0
 14 15  1  0
 15 16  1  0
 16 17  2  0
 17 18  1  0
 18 19  2  0
 19 20  1  0
 20 21  1  0
 21 22  1  0
 22 23  2  0
 23 24  1  0
 24 25  1  0
 25 26  2  0
 21 27  1  0
 27 28  2  0
 27 29  1  0
 29 30  1  0
 30 31  2  0
 31 32  1  0
 32 33  2  0
 33 34  1  0
 34 35  2  0
 35 36  1  0
 36 37  2  0
 37 38  1  0
 38 39  2  0
 39 40  1  0
 40 41  2  0
 19 42  1  0
 42 43  2  0
 14 44  1  0
 44 45  2  0
 44 46  1  0
 46 47  1  0
 47 48  2  0
 48 49  1  0
 49 50  2  0
 50 51  1  0
 51 52  2  0
 52 53  1  0
 53 54  2  0
 54 55  1  0
 55 56  2  0
 56 57  1  0
 57 58  2  0
 13 59  2  0
 59 60  1  0
 60 11  1  0
 43 16  1  0
 58 44  1  0
 26 22  1  0
 41 27  1  0
 52 47  1  0
 58 53  1  0
 35 30  1  0
 41 36  1  0
M  END
>  <Candidate_ID>  (133) 
CAND_R2_133

>  <Candidate_Name>  (133) 
DIB-triethoxysilyl

>  <Parent_Seed_ID>  (133) 
TRAIN_057

>  <Parent_Name>  (133) 
DIB

>  <Transformation_Code>  (133) 
triethoxysilyl

>  <Design_Family>  (133) 
P-N-Si

>  <Preparation_Type>  (133) 
Additive + Secondary Crosslinking

>  <Synthesis_Level>  (133) 
B

>  <Parent_Tanimoto_r3>  (133) 
0.7159090909090909

>  <Max_Train_Tanimoto_r3>  (133) 
0.7159090909090909

>  <Risk_Flags>  (133) 
none

$$$$
CAND_R2_134 | DIB-disiloxane
     RDKit          2D

 58 66  0  0  0  0  0  0  0  0999 V2000
   17.7445   -5.6536    0.0000 C   0  0  0  0  0  0  0  0  0  0  0  0
   16.2890   -5.2907    0.0000 Si  0  0  0  0  0  4  0  0  0  0  0  0
   14.8336   -4.9278    0.0000 C   0  0  0  0  0  0  0  0  0  0  0  0
   16.6519   -3.8352    0.0000 C   0  0  0  0  0  0  0  0  0  0  0  0
   15.9261   -6.7461    0.0000 O   0  0  0  0  0  0  0  0  0  0  0  0
   14.4842   -7.1596    0.0000 Si  0  0  0  0  0  4  0  0  0  0  0  0
   14.0708   -5.7177    0.0000 C   0  0  0  0  0  0  0  0  0  0  0  0
   14.8977   -8.6015    0.0000 C   0  0  0  0  0  0  0  0  0  0  0  0
   13.0423   -7.5730    0.0000 C   0  0  0  0  0  0  0  0  0  0  0  0
   11.8603   -6.6495    0.0000 N   0  0  0  0  0  0  0  0  0  0  0  0
   10.6168   -7.4883    0.0000 C   0  0  0  0  0  0  0  0  0  0  0  0
    9.2072   -6.9753    0.0000 C   0  0  0  0  0  0  0  0  0  0  0  0
    8.9468   -5.4981    0.0000 N   0  0  0  0  0  0  0  0  0  0  0  0
    7.5372   -4.9851    0.0000 C   0  0  0  0  0  0  0  0  0  0  0  0
    6.3882   -5.9492    0.0000 C   0  0  0  0  0  0  0  0  0  0  0  0
    4.9786   -5.4362    0.0000 C   0  0  0  0  0  0  0  0  0  0  0  0
    4.7181   -3.9590    0.0000 C   0  0  0  0  0  0  0  0  0  0  0  0
    3.3086   -3.4460    0.0000 N   0  0  0  0  0  0  0  0  0  0  0  0
    3.0481   -1.9688    0.0000 C   0  0  0  0  0  0  0  0  0  0  0  0
    4.1972   -1.0046    0.0000 C   0  0  0  0  0  0  0  0  0  0  0  0
    5.6526   -1.3675    0.0000 C   0  0  0  0  0  0  0  0  0  0  0  0
    6.4475   -0.0954    0.0000 N   0  0  0  0  0  0  0  0  0  0  0  0
    5.4833    1.0537    0.0000 C   0  0  0  0  0  0  0  0  0  0  0  0
    4.0926    0.4918    0.0000 N   0  0  0  0  0  0  0  0  0  0  0  0
    1.6386   -1.4557    0.0000 P   0  0  0  0  0  0  0  0  0  0  0  0
    2.3886   -0.1567    0.0000 O   0  0  0  0  0  0  0  0  0  0  0  0
    1.3781   -2.9329    0.0000 O   0  0  0  0  0  0  0  0  0  0  0  0
   -0.0314   -3.4460    0.0000 C   0  0  0  0  0  0  0  0  0  0  0  0
   -0.2919   -4.9232    0.0000 C   0  0  0  0  0  0  0  0  0  0  0  0
   -1.7014   -5.4362    0.0000 C   0  0  0  0  0  0  0  0  0  0  0  0
   -2.8505   -4.4720    0.0000 C   0  0  0  0  0  0  0  0  0  0  0  0
   -2.5900   -2.9948    0.0000 C   0  0  0  0  0  0  0  0  0  0  0  0
   -1.1805   -2.4818    0.0000 C   0  0  0  0  0  0  0  0  0  0  0  0
   -0.9200   -1.0046    0.0000 C   0  0  0  0  0  0  0  0  0  0  0  0
   -2.0691   -0.0404    0.0000 C   0  0  0  0  0  0  0  0  0  0  0  0
   -1.8086    1.4368    0.0000 C   0  0  0  0  0  0  0  0  0  0  0  0
   -0.3991    1.9499    0.0000 C   0  0  0  0  0  0  0  0  0  0  0  0
    0.7500    0.9857    0.0000 C   0  0  0  0  0  0  0  0  0  0  0  0
    0.4895   -0.4915    0.0000 C   0  0  0  0  0  0  0  0  0  0  0  0
    5.8672   -2.9948    0.0000 C   0  0  0  0  0  0  0  0  0  0  0  0
    7.2768   -3.5078    0.0000 C   0  0  0  0  0  0  0  0  0  0  0  0
    8.0582   -7.9395    0.0000 P   0  0  0  0  0  0  0  0  0  0  0  0
    7.3082   -6.6404    0.0000 O   0  0  0  0  0  0  0  0  0  0  0  0
    9.2072   -8.9037    0.0000 O   0  0  0  0  0  0  0  0  0  0  0  0
    8.9468  -10.3809    0.0000 C   0  0  0  0  0  0  0  0  0  0  0  0
   10.0958  -11.3451    0.0000 C   0  0  0  0  0  0  0  0  0  0  0  0
    9.8354  -12.8223    0.0000 C   0  0  0  0  0  0  0  0  0  0  0  0
    8.4258  -13.3353    0.0000 C   0  0  0  0  0  0  0  0  0  0  0  0
    7.2768  -12.3711    0.0000 C   0  0  0  0  0  0  0  0  0  0  0  0
    7.5372  -10.8939    0.0000 C   0  0  0  0  0  0  0  0  0  0  0  0
    6.3882   -9.9297    0.0000 C   0  0  0  0  0  0  0  0  0  0  0  0
    4.9786  -10.4427    0.0000 C   0  0  0  0  0  0  0  0  0  0  0  0
    3.8296   -9.4786    0.0000 C   0  0  0  0  0  0  0  0  0  0  0  0
    4.0900   -8.0014    0.0000 C   0  0  0  0  0  0  0  0  0  0  0  0
    5.4996   -7.4883    0.0000 C   0  0  0  0  0  0  0  0  0  0  0  0
    6.6486   -8.4525    0.0000 C   0  0  0  0  0  0  0  0  0  0  0  0
   11.0302   -8.9302    0.0000 C   0  0  0  0  0  0  0  0  0  0  0  0
   12.5293   -8.9826    0.0000 N   0  0  0  0  0  0  0  0  0  0  0  0
  1  2  1  0
  2  3  1  0
  2  4  1  0
  2  5  1  0
  5  6  1  0
  6  7  1  0
  6  8  1  0
  6  9  1  0
  9 10  2  0
 10 11  1  0
 11 12  1  0
 12 13  1  0
 13 14  1  0
 14 15  2  0
 15 16  1  0
 16 17  2  0
 17 18  1  0
 18 19  1  0
 19 20  1  0
 20 21  2  0
 21 22  1  0
 22 23  1  0
 23 24  2  0
 19 25  1  0
 25 26  2  0
 25 27  1  0
 27 28  1  0
 28 29  2  0
 29 30  1  0
 30 31  2  0
 31 32  1  0
 32 33  2  0
 33 34  1  0
 34 35  2  0
 35 36  1  0
 36 37  2  0
 37 38  1  0
 38 39  2  0
 17 40  1  0
 40 41  2  0
 12 42  1  0
 42 43  2  0
 42 44  1  0
 44 45  1  0
 45 46  2  0
 46 47  1  0
 47 48  2  0
 48 49  1  0
 49 50  2  0
 50 51  1  0
 51 52  2  0
 52 53  1  0
 53 54  2  0
 54 55  1  0
 55 56  2  0
 11 57  2  0
 57 58  1  0
 58  9  1  0
 41 14  1  0
 56 42  1  0
 24 20  1  0
 39 25  1  0
 50 45  1  0
 56 51  1  0
 33 28  1  0
 39 34  1  0
M  END
>  <Candidate_ID>  (134) 
CAND_R2_134

>  <Candidate_Name>  (134) 
DIB-disiloxane

>  <Parent_Seed_ID>  (134) 
TRAIN_057

>  <Parent_Name>  (134) 
DIB

>  <Transformation_Code>  (134) 
disiloxane

>  <Design_Family>  (134) 
P-N-Si

>  <Preparation_Type>  (134) 
Additive

>  <Synthesis_Level>  (134) 
B

>  <Parent_Tanimoto_r3>  (134) 
0.7325581395348837

>  <Max_Train_Tanimoto_r3>  (134) 
0.7325581395348837

>  <Risk_Flags>  (134) 
none

$$$$
CAND_R2_135 | DIB-glycidyloxy
     RDKit          2D

 55 64  0  0  0  0  0  0  0  0999 V2000
   10.8772   -6.0111    0.0000 O   0  0  0  0  0  0  0  0  0  0  0  0
   10.6168   -7.4883    0.0000 P   0  0  0  0  0  0  0  0  0  0  0  0
    9.2072   -6.9753    0.0000 C   0  0  0  0  0  0  0  0  0  0  0  0
    8.9468   -5.4981    0.0000 N   0  0  0  0  0  0  0  0  0  0  0  0
    7.5372   -4.9851    0.0000 C   0  0  0  0  0  0  0  0  0  0  0  0
    7.2768   -3.5078    0.0000 C   0  0  0  0  0  0  0  0  0  0  0  0
    5.8672   -2.9948    0.0000 C   0  0  0  0  0  0  0  0  0  0  0  0
    4.7181   -3.9590    0.0000 C   0  0  0  0  0  0  0  0  0  0  0  0
    3.3086   -3.4460    0.0000 N   0  0  0  0  0  0  0  0  0  0  0  0
    2.1595   -4.4101    0.0000 C   0  0  0  0  0  0  0  0  0  0  0  0
    2.4200   -5.8874    0.0000 C   0  0  0  0  0  0  0  0  0  0  0  0
    3.7682   -6.5449    0.0000 C   0  0  0  0  0  0  0  0  0  0  0  0
    3.5594   -8.0303    0.0000 N   0  0  0  0  0  0  0  0  0  0  0  0
    2.0822   -8.2908    0.0000 C   0  0  0  0  0  0  0  0  0  0  0  0
    1.4247   -9.6390    0.0000 O   0  0  0  0  0  0  0  0  0  0  0  0
   -0.0717   -9.7436    0.0000 C   0  0  0  0  0  0  0  0  0  0  0  0
   -0.7292  -11.0918    0.0000 C   0  0  0  0  0  0  0  0  0  0  0  0
   -0.6246  -12.5882    0.0000 C   0  0  0  0  0  0  0  0  0  0  0  0
   -1.9728  -11.9306    0.0000 O   0  0  0  0  0  0  0  0  0  0  0  0
    1.3780   -6.9664    0.0000 N   0  0  0  0  0  0  0  0  0  0  0  0
    0.7500   -3.8971    0.0000 P   0  0  0  0  0  0  0  0  0  0  0  0
    0.4895   -5.3743    0.0000 O   0  0  0  0  0  0  0  0  0  0  0  0
    1.5000   -2.5981    0.0000 O   0  0  0  0  0  0  0  0  0  0  0  0
    0.7500   -1.2990    0.0000 C   0  0  0  0  0  0  0  0  0  0  0  0
    1.5000    0.0000    0.0000 C   0  0  0  0  0  0  0  0  0  0  0  0
    0.7500    1.2990    0.0000 C   0  0  0  0  0  0  0  0  0  0  0  0
   -0.7500    1.2990    0.0000 C   0  0  0  0  0  0  0  0  0  0  0  0
   -1.5000    0.0000    0.0000 C   0  0  0  0  0  0  0  0  0  0  0  0
   -0.7500   -1.2990    0.0000 C   0  0  0  0  0  0  0  0  0  0  0  0
   -1.5000   -2.5981    0.0000 C   0  0  0  0  0  0  0  0  0  0  0  0
   -3.0000   -2.5981    0.0000 C   0  0  0  0  0  0  0  0  0  0  0  0
   -3.7500   -3.8971    0.0000 C   0  0  0  0  0  0  0  0  0  0  0  0
   -3.0000   -5.1962    0.0000 C   0  0  0  0  0  0  0  0  0  0  0  0
   -1.5000   -5.1962    0.0000 C   0  0  0  0  0  0  0  0  0  0  0  0
   -0.7500   -3.8971    0.0000 C   0  0  0  0  0  0  0  0  0  0  0  0
    4.9786   -5.4362    0.0000 C   0  0  0  0  0  0  0  0  0  0  0  0
    6.3882   -5.9492    0.0000 C   0  0  0  0  0  0  0  0  0  0  0  0
    8.0582   -7.9395    0.0000 C   0  0  0  0  0  0  0  0  0  0  0  0
    6.6027   -7.5766    0.0000 C   0  0  0  0  0  0  0  0  0  0  0  0
    5.8078   -8.8487    0.0000 N   0  0  0  0  0  0  0  0  0  0  0  0
    6.7720   -9.9977    0.0000 C   0  0  0  0  0  0  0  0  0  0  0  0
    8.1628   -9.4358    0.0000 N   0  0  0  0  0  0  0  0  0  0  0  0
    9.8668   -8.7874    0.0000 O   0  0  0  0  0  0  0  0  0  0  0  0
   10.6168  -10.0864    0.0000 C   0  0  0  0  0  0  0  0  0  0  0  0
    9.8668  -11.3854    0.0000 C   0  0  0  0  0  0  0  0  0  0  0  0
   10.6168  -12.6845    0.0000 C   0  0  0  0  0  0  0  0  0  0  0  0
   12.1168  -12.6845    0.0000 C   0  0  0  0  0  0  0  0  0  0  0  0
   12.8668  -11.3854    0.0000 C   0  0  0  0  0  0  0  0  0  0  0  0
   12.1168  -10.0864    0.0000 C   0  0  0  0  0  0  0  0  0  0  0  0
   12.8668   -8.7874    0.0000 C   0  0  0  0  0  0  0  0  0  0  0  0
   14.3668   -8.7874    0.0000 C   0  0  0  0  0  0  0  0  0  0  0  0
   15.1168   -7.4883    0.0000 C   0  0  0  0  0  0  0  0  0  0  0  0
   14.3668   -6.1893    0.0000 C   0  0  0  0  0  0  0  0  0  0  0  0
   12.8668   -6.1893    0.0000 C   0  0  0  0  0  0  0  0  0  0  0  0
   12.1168   -7.4883    0.0000 C   0  0  0  0  0  0  0  0  0  0  0  0
  1  2  2  0
  2  3  1  0
  3  4  1  0
  4  5  1  0
  5  6  2  0
  6  7  1  0
  7  8  2  0
  8  9  1  0
  9 10  1  0
 10 11  1  0
 11 12  2  0
 12 13  1  0
 13 14  1  0
 14 15  1  0
 15 16  1  0
 16 17  1  0
 17 18  1  0
 18 19  1  0
 14 20  2  0
 10 21  1  0
 21 22  2  0
 21 23  1  0
 23 24  1  0
 24 25  2  0
 25 26  1  0
 26 27  2  0
 27 28  1  0
 28 29  2  0
 29 30  1  0
 30 31  2  0
 31 32  1  0
 32 33  2  0
 33 34  1  0
 34 35  2  0
  8 36  1  0
 36 37  2  0
  3 38  1  0
 38 39  2  0
 39 40  1  0
 40 41  1  0
 41 42  2  0
  2 43  1  0
 43 44  1  0
 44 45  2  0
 45 46  1  0
 46 47  2  0
 47 48  1  0
 48 49  2  0
 49 50  1  0
 50 51  2  0
 51 52  1  0
 52 53  2  0
 53 54  1  0
 54 55  2  0
 55  2  1  0
 37  5  1  0
 42 38  1  0
 49 44  1  0
 55 50  1  0
 20 11  1  0
 35 21  1  0
 19 17  1  0
 29 24  1  0
 35 30  1  0
M  END
>  <Candidate_ID>  (135) 
CAND_R2_135

>  <Candidate_Name>  (135) 
DIB-glycidyloxy

>  <Parent_Seed_ID>  (135) 
TRAIN_057

>  <Parent_Name>  (135) 
DIB

>  <Transformation_Code>  (135) 
glycidyloxy

>  <Design_Family>  (135) 
P-N

>  <Preparation_Type>  (135) 
Co-curing

>  <Synthesis_Level>  (135) 
B

>  <Parent_Tanimoto_r3>  (135) 
0.7

>  <Max_Train_Tanimoto_r3>  (135) 
0.7

>  <Risk_Flags>  (135) 
none

$$$$
CAND_R2_136 | DIB-diaminotriazine
     RDKit          2D

 58 67  0  0  0  0  0  0  0  0999 V2000
   17.1996  -11.2604    0.0000 N   0  0  0  0  0  0  0  0  0  0  0  0
   15.7032  -11.3650    0.0000 C   0  0  0  0  0  0  0  0  0  0  0  0
   15.0457  -12.7132    0.0000 N   0  0  0  0  0  0  0  0  0  0  0  0
   13.5493  -12.8179    0.0000 C   0  0  0  0  0  0  0  0  0  0  0  0
   12.8918  -14.1661    0.0000 N   0  0  0  0  0  0  0  0  0  0  0  0
   12.7105  -11.5743    0.0000 N   0  0  0  0  0  0  0  0  0  0  0  0
   13.3681  -10.2261    0.0000 C   0  0  0  0  0  0  0  0  0  0  0  0
   12.5293   -8.9826    0.0000 C   0  0  0  0  0  0  0  0  0  0  0  0
   11.0302   -8.9302    0.0000 N   0  0  0  0  0  0  0  0  0  0  0  0
   10.6168   -7.4883    0.0000 C   0  0  0  0  0  0  0  0  0  0  0  0
    9.2072   -6.9753    0.0000 C   0  0  0  0  0  0  0  0  0  0  0  0
    8.9468   -5.4981    0.0000 N   0  0  0  0  0  0  0  0  0  0  0  0
   10.0958   -4.5339    0.0000 C   0  0  0  0  0  0  0  0  0  0  0  0
    9.8354   -3.0567    0.0000 C   0  0  0  0  0  0  0  0  0  0  0  0
   10.9844   -2.0925    0.0000 C   0  0  0  0  0  0  0  0  0  0  0  0
   12.3940   -2.6055    0.0000 C   0  0  0  0  0  0  0  0  0  0  0  0
   13.5430   -1.6414    0.0000 N   0  0  0  0  0  0  0  0  0  0  0  0
   14.9526   -2.1544    0.0000 C   0  0  0  0  0  0  0  0  0  0  0  0
   15.2130   -3.6316    0.0000 C   0  0  0  0  0  0  0  0  0  0  0  0
   14.1711   -4.7106    0.0000 C   0  0  0  0  0  0  0  0  0  0  0  0
   14.8753   -6.0350    0.0000 N   0  0  0  0  0  0  0  0  0  0  0  0
   16.3525   -5.7746    0.0000 C   0  0  0  0  0  0  0  0  0  0  0  0
   16.5612   -4.2892    0.0000 N   0  0  0  0  0  0  0  0  0  0  0  0
   16.1016   -1.1902    0.0000 P   0  0  0  0  0  0  0  0  0  0  0  0
   16.8516   -2.4892    0.0000 O   0  0  0  0  0  0  0  0  0  0  0  0
   14.9526   -0.2260    0.0000 O   0  0  0  0  0  0  0  0  0  0  0  0
   15.2130    1.2512    0.0000 C   0  0  0  0  0  0  0  0  0  0  0  0
   14.0640    2.2154    0.0000 C   0  0  0  0  0  0  0  0  0  0  0  0
   14.3244    3.6926    0.0000 C   0  0  0  0  0  0  0  0  0  0  0  0
   15.7340    4.2056    0.0000 C   0  0  0  0  0  0  0  0  0  0  0  0
   16.8831    3.2414    0.0000 C   0  0  0  0  0  0  0  0  0  0  0  0
   16.6226    1.7642    0.0000 C   0  0  0  0  0  0  0  0  0  0  0  0
   17.7716    0.8000    0.0000 C   0  0  0  0  0  0  0  0  0  0  0  0
   19.1812    1.3131    0.0000 C   0  0  0  0  0  0  0  0  0  0  0  0
   20.3303    0.3489    0.0000 C   0  0  0  0  0  0  0  0  0  0  0  0
   20.0698   -1.1283    0.0000 C   0  0  0  0  0  0  0  0  0  0  0  0
   18.6602   -1.6414    0.0000 C   0  0  0  0  0  0  0  0  0  0  0  0
   17.5112   -0.6772    0.0000 C   0  0  0  0  0  0  0  0  0  0  0  0
   12.6544   -4.0828    0.0000 C   0  0  0  0  0  0  0  0  0  0  0  0
   11.5054   -5.0469    0.0000 C   0  0  0  0  0  0  0  0  0  0  0  0
    8.0582   -7.9395    0.0000 P   0  0  0  0  0  0  0  0  0  0  0  0
    7.3082   -6.6404    0.0000 O   0  0  0  0  0  0  0  0  0  0  0  0
    9.2072   -8.9037    0.0000 O   0  0  0  0  0  0  0  0  0  0  0  0
    8.9468  -10.3809    0.0000 C   0  0  0  0  0  0  0  0  0  0  0  0
   10.0958  -11.3451    0.0000 C   0  0  0  0  0  0  0  0  0  0  0  0
    9.8354  -12.8223    0.0000 C   0  0  0  0  0  0  0  0  0  0  0  0
    8.4258  -13.3353    0.0000 C   0  0  0  0  0  0  0  0  0  0  0  0
    7.2768  -12.3711    0.0000 C   0  0  0  0  0  0  0  0  0  0  0  0
    7.5372  -10.8939    0.0000 C   0  0  0  0  0  0  0  0  0  0  0  0
    6.3882   -9.9297    0.0000 C   0  0  0  0  0  0  0  0  0  0  0  0
    4.9786  -10.4427    0.0000 C   0  0  0  0  0  0  0  0  0  0  0  0
    3.8296   -9.4786    0.0000 C   0  0  0  0  0  0  0  0  0  0  0  0
    4.0900   -8.0014    0.0000 C   0  0  0  0  0  0  0  0  0  0  0  0
    5.4996   -7.4883    0.0000 C   0  0  0  0  0  0  0  0  0  0  0  0
    6.6486   -8.4525    0.0000 C   0  0  0  0  0  0  0  0  0  0  0  0
   11.8603   -6.6495    0.0000 C   0  0  0  0  0  0  0  0  0  0  0  0
   13.0423   -7.5730    0.0000 N   0  0  0  0  0  0  0  0  0  0  0  0
   14.8645  -10.1215    0.0000 N   0  0  0  0  0  0  0  0  0  0  0  0
  1  2  1  0
  2  3  2  0
  3  4  1  0
  4  5  1  0
  4  6  2  0
  6  7  1  0
  7  8  1  0
  8  9  2  0
  9 10  1  0
 10 11  1  0
 11 12  1  0
 12 13  1  0
 13 14  2  0
 14 15  1  0
 15 16  2  0
 16 17  1  0
 17 18  1  0
 18 19  1  0
 19 20  2  0
 20 21  1  0
 21 22  1  0
 22 23  2  0
 18 24  1  0
 24 25  2  0
 24 26  1  0
 26 27  1  0
 27 28  2  0
 28 29  1  0
 29 30  2  0
 30 31  1  0
 31 32  2  0
 32 33  1  0
 33 34  2  0
 34 35  1  0
 35 36  2  0
 36 37  1  0
 37 38  2  0
 16 39  1  0
 39 40  2  0
 11 41  1  0
 41 42  2  0
 41 43  1  0
 43 44  1  0
 44 45  2  0
 45 46  1  0
 46 47  2  0
 47 48  1  0
 48 49  2  0
 49 50  1  0
 50 51  2  0
 51 52  1  0
 52 53  2  0
 53 54  1  0
 54 55  2  0
 10 56  2  0
 56 57  1  0
  7 58  2  0
 58  2  1  0
 57  8  1  0
 40 13  1  0
 55 41  1  0
 23 19  1  0
 38 24  1  0
 49 44  1  0
 55 50  1  0
 32 27  1  0
 38 33  1  0
M  END
>  <Candidate_ID>  (136) 
CAND_R2_136

>  <Candidate_Name>  (136) 
DIB-diaminotriazine

>  <Parent_Seed_ID>  (136) 
TRAIN_057

>  <Parent_Name>  (136) 
DIB

>  <Transformation_Code>  (136) 
diaminotriazine

>  <Design_Family>  (136) 
P-N

>  <Preparation_Type>  (136) 
Co-curing

>  <Synthesis_Level>  (136) 
B

>  <Parent_Tanimoto_r3>  (136) 
0.7078651685393258

>  <Max_Train_Tanimoto_r3>  (136) 
0.7078651685393258

>  <Risk_Flags>  (136) 
none

$$$$
CAND_R2_137 | DIB-piperazine
     RDKit          2D

 56 65  0  0  0  0  0  0  0  0999 V2000
   10.8772   -6.0111    0.0000 O   0  0  0  0  0  0  0  0  0  0  0  0
   10.6168   -7.4883    0.0000 P   0  0  0  0  0  0  0  0  0  0  0  0
    9.2072   -6.9753    0.0000 C   0  0  0  0  0  0  0  0  0  0  0  0
    8.9468   -5.4981    0.0000 N   0  0  0  0  0  0  0  0  0  0  0  0
    7.5372   -4.9851    0.0000 C   0  0  0  0  0  0  0  0  0  0  0  0
    7.2768   -3.5078    0.0000 C   0  0  0  0  0  0  0  0  0  0  0  0
    5.8672   -2.9948    0.0000 C   0  0  0  0  0  0  0  0  0  0  0  0
    4.7181   -3.9590    0.0000 C   0  0  0  0  0  0  0  0  0  0  0  0
    3.3086   -3.4460    0.0000 N   0  0  0  0  0  0  0  0  0  0  0  0
    2.1595   -4.4101    0.0000 C   0  0  0  0  0  0  0  0  0  0  0  0
    2.4200   -5.8874    0.0000 C   0  0  0  0  0  0  0  0  0  0  0  0
    3.7682   -6.5449    0.0000 C   0  0  0  0  0  0  0  0  0  0  0  0
    3.5594   -8.0303    0.0000 N   0  0  0  0  0  0  0  0  0  0  0  0
    2.0822   -8.2908    0.0000 C   0  0  0  0  0  0  0  0  0  0  0  0
    1.4247   -9.6390    0.0000 N   0  0  0  0  0  0  0  0  0  0  0  0
   -0.0717   -9.7436    0.0000 C   0  0  0  0  0  0  0  0  0  0  0  0
   -0.7292  -11.0918    0.0000 C   0  0  0  0  0  0  0  0  0  0  0  0
    0.1096  -12.3354    0.0000 N   0  0  0  0  0  0  0  0  0  0  0  0
    1.6059  -12.2307    0.0000 C   0  0  0  0  0  0  0  0  0  0  0  0
    2.2635  -10.8825    0.0000 C   0  0  0  0  0  0  0  0  0  0  0  0
    1.3780   -6.9664    0.0000 N   0  0  0  0  0  0  0  0  0  0  0  0
    0.7500   -3.8971    0.0000 P   0  0  0  0  0  0  0  0  0  0  0  0
    0.4895   -5.3743    0.0000 O   0  0  0  0  0  0  0  0  0  0  0  0
    1.5000   -2.5981    0.0000 O   0  0  0  0  0  0  0  0  0  0  0  0
    0.7500   -1.2990    0.0000 C   0  0  0  0  0  0  0  0  0  0  0  0
    1.5000    0.0000    0.0000 C   0  0  0  0  0  0  0  0  0  0  0  0
    0.7500    1.2990    0.0000 C   0  0  0  0  0  0  0  0  0  0  0  0
   -0.7500    1.2990    0.0000 C   0  0  0  0  0  0  0  0  0  0  0  0
   -1.5000    0.0000    0.0000 C   0  0  0  0  0  0  0  0  0  0  0  0
   -0.7500   -1.2990    0.0000 C   0  0  0  0  0  0  0  0  0  0  0  0
   -1.5000   -2.5981    0.0000 C   0  0  0  0  0  0  0  0  0  0  0  0
   -3.0000   -2.5981    0.0000 C   0  0  0  0  0  0  0  0  0  0  0  0
   -3.7500   -3.8971    0.0000 C   0  0  0  0  0  0  0  0  0  0  0  0
   -3.0000   -5.1962    0.0000 C   0  0  0  0  0  0  0  0  0  0  0  0
   -1.5000   -5.1962    0.0000 C   0  0  0  0  0  0  0  0  0  0  0  0
   -0.7500   -3.8971    0.0000 C   0  0  0  0  0  0  0  0  0  0  0  0
    4.9786   -5.4362    0.0000 C   0  0  0  0  0  0  0  0  0  0  0  0
    6.3882   -5.9492    0.0000 C   0  0  0  0  0  0  0  0  0  0  0  0
    8.0582   -7.9395    0.0000 C   0  0  0  0  0  0  0  0  0  0  0  0
    6.6027   -7.5766    0.0000 C   0  0  0  0  0  0  0  0  0  0  0  0
    5.8078   -8.8487    0.0000 N   0  0  0  0  0  0  0  0  0  0  0  0
    6.7720   -9.9977    0.0000 C   0  0  0  0  0  0  0  0  0  0  0  0
    8.1628   -9.4358    0.0000 N   0  0  0  0  0  0  0  0  0  0  0  0
    9.8668   -8.7874    0.0000 O   0  0  0  0  0  0  0  0  0  0  0  0
   10.6168  -10.0864    0.0000 C   0  0  0  0  0  0  0  0  0  0  0  0
    9.8668  -11.3854    0.0000 C   0  0  0  0  0  0  0  0  0  0  0  0
   10.6168  -12.6845    0.0000 C   0  0  0  0  0  0  0  0  0  0  0  0
   12.1168  -12.6845    0.0000 C   0  0  0  0  0  0  0  0  0  0  0  0
   12.8668  -11.3854    0.0000 C   0  0  0  0  0  0  0  0  0  0  0  0
   12.1168  -10.0864    0.0000 C   0  0  0  0  0  0  0  0  0  0  0  0
   12.8668   -8.7874    0.0000 C   0  0  0  0  0  0  0  0  0  0  0  0
   14.3668   -8.7874    0.0000 C   0  0  0  0  0  0  0  0  0  0  0  0
   15.1168   -7.4883    0.0000 C   0  0  0  0  0  0  0  0  0  0  0  0
   14.3668   -6.1893    0.0000 C   0  0  0  0  0  0  0  0  0  0  0  0
   12.8668   -6.1893    0.0000 C   0  0  0  0  0  0  0  0  0  0  0  0
   12.1168   -7.4883    0.0000 C   0  0  0  0  0  0  0  0  0  0  0  0
  1  2  2  0
  2  3  1  0
  3  4  1  0
  4  5  1  0
  5  6  2  0
  6  7  1  0
  7  8  2  0
  8  9  1  0
  9 10  1  0
 10 11  1  0
 11 12  2  0
 12 13  1  0
 13 14  1  0
 14 15  1  0
 15 16  1  0
 16 17  1  0
 17 18  1  0
 18 19  1  0
 19 20  1  0
 14 21  2  0
 10 22  1  0
 22 23  2  0
 22 24  1  0
 24 25  1  0
 25 26  2  0
 26 27  1  0
 27 28  2  0
 28 29  1  0
 29 30  2  0
 30 31  1  0
 31 32  2  0
 32 33  1  0
 33 34  2  0
 34 35  1  0
 35 36  2  0
  8 37  1  0
 37 38  2  0
  3 39  1  0
 39 40  2  0
 40 41  1  0
 41 42  1  0
 42 43  2  0
  2 44  1  0
 44 45  1  0
 45 46  2  0
 46 47  1  0
 47 48  2  0
 48 49  1  0
 49 50  2  0
 50 51  1  0
 51 52  2  0
 52 53  1  0
 53 54  2  0
 54 55  1  0
 55 56  2  0
 56  2  1  0
 38  5  1  0
 43 39  1  0
 50 45  1  0
 56 51  1  0
 21 11  1  0
 36 22  1  0
 20 15  1  0
 30 25  1  0
 36 31  1  0
M  END
>  <Candidate_ID>  (137) 
CAND_R2_137

>  <Candidate_Name>  (137) 
DIB-piperazine

>  <Parent_Seed_ID>  (137) 
TRAIN_057

>  <Parent_Name>  (137) 
DIB

>  <Transformation_Code>  (137) 
piperazine

>  <Design_Family>  (137) 
P-N

>  <Preparation_Type>  (137) 
Co-curing

>  <Synthesis_Level>  (137) 
B

>  <Parent_Tanimoto_r3>  (137) 
0.6923076923076923

>  <Max_Train_Tanimoto_r3>  (137) 
0.6923076923076923

>  <Risk_Flags>  (137) 
candidate may be outside strict in-domain threshold

$$$$
CAND_R2_138 | DIB-benzamide-linker
     RDKit          2D

 59 68  0  0  0  0  0  0  0  0999 V2000
   15.5220   -8.7733    0.0000 O   0  0  0  0  0  0  0  0  0  0  0  0
   14.8645  -10.1215    0.0000 C   0  0  0  0  0  0  0  0  0  0  0  0
   13.3681  -10.2261    0.0000 N   0  0  0  0  0  0  0  0  0  0  0  0
   12.5293   -8.9826    0.0000 C   0  0  0  0  0  0  0  0  0  0  0  0
   11.0302   -8.9302    0.0000 N   0  0  0  0  0  0  0  0  0  0  0  0
   10.6168   -7.4883    0.0000 C   0  0  0  0  0  0  0  0  0  0  0  0
    9.2072   -6.9753    0.0000 C   0  0  0  0  0  0  0  0  0  0  0  0
    8.9468   -5.4981    0.0000 N   0  0  0  0  0  0  0  0  0  0  0  0
   10.0958   -4.5339    0.0000 C   0  0  0  0  0  0  0  0  0  0  0  0
    9.8354   -3.0567    0.0000 C   0  0  0  0  0  0  0  0  0  0  0  0
   10.9844   -2.0925    0.0000 C   0  0  0  0  0  0  0  0  0  0  0  0
   12.3940   -2.6055    0.0000 C   0  0  0  0  0  0  0  0  0  0  0  0
   13.5430   -1.6414    0.0000 N   0  0  0  0  0  0  0  0  0  0  0  0
   14.9526   -2.1544    0.0000 C   0  0  0  0  0  0  0  0  0  0  0  0
   15.2130   -3.6316    0.0000 C   0  0  0  0  0  0  0  0  0  0  0  0
   14.1711   -4.7106    0.0000 C   0  0  0  0  0  0  0  0  0  0  0  0
   14.8753   -6.0350    0.0000 N   0  0  0  0  0  0  0  0  0  0  0  0
   16.3525   -5.7746    0.0000 C   0  0  0  0  0  0  0  0  0  0  0  0
   16.5612   -4.2892    0.0000 N   0  0  0  0  0  0  0  0  0  0  0  0
   16.1016   -1.1902    0.0000 P   0  0  0  0  0  0  0  0  0  0  0  0
   16.8516   -2.4892    0.0000 O   0  0  0  0  0  0  0  0  0  0  0  0
   14.9526   -0.2260    0.0000 O   0  0  0  0  0  0  0  0  0  0  0  0
   15.2130    1.2512    0.0000 C   0  0  0  0  0  0  0  0  0  0  0  0
   14.0640    2.2154    0.0000 C   0  0  0  0  0  0  0  0  0  0  0  0
   14.3244    3.6926    0.0000 C   0  0  0  0  0  0  0  0  0  0  0  0
   15.7340    4.2056    0.0000 C   0  0  0  0  0  0  0  0  0  0  0  0
   16.8831    3.2414    0.0000 C   0  0  0  0  0  0  0  0  0  0  0  0
   16.6226    1.7642    0.0000 C   0  0  0  0  0  0  0  0  0  0  0  0
   17.7716    0.8000    0.0000 C   0  0  0  0  0  0  0  0  0  0  0  0
   19.1812    1.3131    0.0000 C   0  0  0  0  0  0  0  0  0  0  0  0
   20.3303    0.3489    0.0000 C   0  0  0  0  0  0  0  0  0  0  0  0
   20.0698   -1.1283    0.0000 C   0  0  0  0  0  0  0  0  0  0  0  0
   18.6602   -1.6414    0.0000 C   0  0  0  0  0  0  0  0  0  0  0  0
   17.5112   -0.6772    0.0000 C   0  0  0  0  0  0  0  0  0  0  0  0
   12.6544   -4.0828    0.0000 C   0  0  0  0  0  0  0  0  0  0  0  0
   11.5054   -5.0469    0.0000 C   0  0  0  0  0  0  0  0  0  0  0  0
    8.0582   -7.9395    0.0000 P   0  0  0  0  0  0  0  0  0  0  0  0
    7.3082   -6.6404    0.0000 O   0  0  0  0  0  0  0  0  0  0  0  0
    9.2072   -8.9037    0.0000 O   0  0  0  0  0  0  0  0  0  0  0  0
    8.9468  -10.3809    0.0000 C   0  0  0  0  0  0  0  0  0  0  0  0
   10.0958  -11.3451    0.0000 C   0  0  0  0  0  0  0  0  0  0  0  0
    9.8354  -12.8223    0.0000 C   0  0  0  0  0  0  0  0  0  0  0  0
    8.4258  -13.3353    0.0000 C   0  0  0  0  0  0  0  0  0  0  0  0
    7.2768  -12.3711    0.0000 C   0  0  0  0  0  0  0  0  0  0  0  0
    7.5372  -10.8939    0.0000 C   0  0  0  0  0  0  0  0  0  0  0  0
    6.3882   -9.9297    0.0000 C   0  0  0  0  0  0  0  0  0  0  0  0
    4.9786  -10.4427    0.0000 C   0  0  0  0  0  0  0  0  0  0  0  0
    3.8296   -9.4786    0.0000 C   0  0  0  0  0  0  0  0  0  0  0  0
    4.0900   -8.0014    0.0000 C   0  0  0  0  0  0  0  0  0  0  0  0
    5.4996   -7.4883    0.0000 C   0  0  0  0  0  0  0  0  0  0  0  0
    6.6486   -8.4525    0.0000 C   0  0  0  0  0  0  0  0  0  0  0  0
   11.8603   -6.6495    0.0000 C   0  0  0  0  0  0  0  0  0  0  0  0
   13.0423   -7.5730    0.0000 N   0  0  0  0  0  0  0  0  0  0  0  0
   15.7032  -11.3650    0.0000 C   0  0  0  0  0  0  0  0  0  0  0  0
   15.0457  -12.7132    0.0000 C   0  0  0  0  0  0  0  0  0  0  0  0
   15.8845  -13.9568    0.0000 C   0  0  0  0  0  0  0  0  0  0  0  0
   17.3808  -13.8522    0.0000 C   0  0  0  0  0  0  0  0  0  0  0  0
   18.0384  -12.5040    0.0000 C   0  0  0  0  0  0  0  0  0  0  0  0
   17.1996  -11.2604    0.0000 C   0  0  0  0  0  0  0  0  0  0  0  0
  1  2  2  0
  2  3  1  0
  3  4  1  0
  4  5  2  0
  5  6  1  0
  6  7  1  0
  7  8  1  0
  8  9  1  0
  9 10  2  0
 10 11  1  0
 11 12  2  0
 12 13  1  0
 13 14  1  0
 14 15  1  0
 15 16  2  0
 16 17  1  0
 17 18  1  0
 18 19  2  0
 14 20  1  0
 20 21  2  0
 20 22  1  0
 22 23  1  0
 23 24  2  0
 24 25  1  0
 25 26  2  0
 26 27  1  0
 27 28  2  0
 28 29  1  0
 29 30  2  0
 30 31  1  0
 31 32  2  0
 32 33  1  0
 33 34  2  0
 12 35  1  0
 35 36  2  0
  7 37  1  0
 37 38  2  0
 37 39  1  0
 39 40  1  0
 40 41  2  0
 41 42  1  0
 42 43  2  0
 43 44  1  0
 44 45  2  0
 45 46  1  0
 46 47  2  0
 47 48  1  0
 48 49  2  0
 49 50  1  0
 50 51  2  0
  6 52  2  0
 52 53  1  0
  2 54  1  0
 54 55  2  0
 55 56  1  0
 56 57  2  0
 57 58  1  0
 58 59  2  0
 53  4  1  0
 59 54  1  0
 36  9  1  0
 51 37  1  0
 19 15  1  0
 34 20  1  0
 45 40  1  0
 51 46  1  0
 28 23  1  0
 34 29  1  0
M  END
>  <Candidate_ID>  (138) 
CAND_R2_138

>  <Candidate_Name>  (138) 
DIB-benzamide-linker

>  <Parent_Seed_ID>  (138) 
TRAIN_057

>  <Parent_Name>  (138) 
DIB

>  <Transformation_Code>  (138) 
benzamide_linker

>  <Design_Family>  (138) 
P-N

>  <Preparation_Type>  (138) 
Additive

>  <Synthesis_Level>  (138) 
B

>  <Parent_Tanimoto_r3>  (138) 
0.6774193548387096

>  <Max_Train_Tanimoto_r3>  (138) 
0.6774193548387096

>  <Risk_Flags>  (138) 
candidate may be outside strict in-domain threshold

$$$$
CAND_R2_139 | DIB-phenyl
     RDKit          2D

 56 65  0  0  0  0  0  0  0  0999 V2000
   10.8772   -6.0111    0.0000 O   0  0  0  0  0  0  0  0  0  0  0  0
   10.6168   -7.4883    0.0000 P   0  0  0  0  0  0  0  0  0  0  0  0
    9.2072   -6.9753    0.0000 C   0  0  0  0  0  0  0  0  0  0  0  0
    8.9468   -5.4981    0.0000 N   0  0  0  0  0  0  0  0  0  0  0  0
    7.5372   -4.9851    0.0000 C   0  0  0  0  0  0  0  0  0  0  0  0
    7.2768   -3.5078    0.0000 C   0  0  0  0  0  0  0  0  0  0  0  0
    5.8672   -2.9948    0.0000 C   0  0  0  0  0  0  0  0  0  0  0  0
    4.7181   -3.9590    0.0000 C   0  0  0  0  0  0  0  0  0  0  0  0
    3.3086   -3.4460    0.0000 N   0  0  0  0  0  0  0  0  0  0  0  0
    2.1595   -4.4101    0.0000 C   0  0  0  0  0  0  0  0  0  0  0  0
    2.4200   -5.8874    0.0000 C   0  0  0  0  0  0  0  0  0  0  0  0
    3.7682   -6.5449    0.0000 C   0  0  0  0  0  0  0  0  0  0  0  0
    3.5594   -8.0303    0.0000 N   0  0  0  0  0  0  0  0  0  0  0  0
    2.0822   -8.2908    0.0000 C   0  0  0  0  0  0  0  0  0  0  0  0
    1.4247   -9.6390    0.0000 C   0  0  0  0  0  0  0  0  0  0  0  0
   -0.0717   -9.7436    0.0000 C   0  0  0  0  0  0  0  0  0  0  0  0
   -0.7292  -11.0918    0.0000 C   0  0  0  0  0  0  0  0  0  0  0  0
    0.1096  -12.3354    0.0000 C   0  0  0  0  0  0  0  0  0  0  0  0
    1.6059  -12.2307    0.0000 C   0  0  0  0  0  0  0  0  0  0  0  0
    2.2635  -10.8825    0.0000 C   0  0  0  0  0  0  0  0  0  0  0  0
    1.3780   -6.9664    0.0000 N   0  0  0  0  0  0  0  0  0  0  0  0
    0.7500   -3.8971    0.0000 P   0  0  0  0  0  0  0  0  0  0  0  0
    0.4895   -5.3743    0.0000 O   0  0  0  0  0  0  0  0  0  0  0  0
    1.5000   -2.5981    0.0000 O   0  0  0  0  0  0  0  0  0  0  0  0
    0.7500   -1.2990    0.0000 C   0  0  0  0  0  0  0  0  0  0  0  0
    1.5000    0.0000    0.0000 C   0  0  0  0  0  0  0  0  0  0  0  0
    0.7500    1.2990    0.0000 C   0  0  0  0  0  0  0  0  0  0  0  0
   -0.7500    1.2990    0.0000 C   0  0  0  0  0  0  0  0  0  0  0  0
   -1.5000    0.0000    0.0000 C   0  0  0  0  0  0  0  0  0  0  0  0
   -0.7500   -1.2990    0.0000 C   0  0  0  0  0  0  0  0  0  0  0  0
   -1.5000   -2.5981    0.0000 C   0  0  0  0  0  0  0  0  0  0  0  0
   -3.0000   -2.5981    0.0000 C   0  0  0  0  0  0  0  0  0  0  0  0
   -3.7500   -3.8971    0.0000 C   0  0  0  0  0  0  0  0  0  0  0  0
   -3.0000   -5.1962    0.0000 C   0  0  0  0  0  0  0  0  0  0  0  0
   -1.5000   -5.1962    0.0000 C   0  0  0  0  0  0  0  0  0  0  0  0
   -0.7500   -3.8971    0.0000 C   0  0  0  0  0  0  0  0  0  0  0  0
    4.9786   -5.4362    0.0000 C   0  0  0  0  0  0  0  0  0  0  0  0
    6.3882   -5.9492    0.0000 C   0  0  0  0  0  0  0  0  0  0  0  0
    8.0582   -7.9395    0.0000 C   0  0  0  0  0  0  0  0  0  0  0  0
    6.6027   -7.5766    0.0000 C   0  0  0  0  0  0  0  0  0  0  0  0
    5.8078   -8.8487    0.0000 N   0  0  0  0  0  0  0  0  0  0  0  0
    6.7720   -9.9977    0.0000 C   0  0  0  0  0  0  0  0  0  0  0  0
    8.1628   -9.4358    0.0000 N   0  0  0  0  0  0  0  0  0  0  0  0
    9.8668   -8.7874    0.0000 O   0  0  0  0  0  0  0  0  0  0  0  0
   10.6168  -10.0864    0.0000 C   0  0  0  0  0  0  0  0  0  0  0  0
    9.8668  -11.3854    0.0000 C   0  0  0  0  0  0  0  0  0  0  0  0
   10.6168  -12.6845    0.0000 C   0  0  0  0  0  0  0  0  0  0  0  0
   12.1168  -12.6845    0.0000 C   0  0  0  0  0  0  0  0  0  0  0  0
   12.8668  -11.3854    0.0000 C   0  0  0  0  0  0  0  0  0  0  0  0
   12.1168  -10.0864    0.0000 C   0  0  0  0  0  0  0  0  0  0  0  0
   12.8668   -8.7874    0.0000 C   0  0  0  0  0  0  0  0  0  0  0  0
   14.3668   -8.7874    0.0000 C   0  0  0  0  0  0  0  0  0  0  0  0
   15.1168   -7.4883    0.0000 C   0  0  0  0  0  0  0  0  0  0  0  0
   14.3668   -6.1893    0.0000 C   0  0  0  0  0  0  0  0  0  0  0  0
   12.8668   -6.1893    0.0000 C   0  0  0  0  0  0  0  0  0  0  0  0
   12.1168   -7.4883    0.0000 C   0  0  0  0  0  0  0  0  0  0  0  0
  1  2  2  0
  2  3  1  0
  3  4  1  0
  4  5  1  0
  5  6  2  0
  6  7  1  0
  7  8  2  0
  8  9  1  0
  9 10  1  0
 10 11  1  0
 11 12  2  0
 12 13  1  0
 13 14  1  0
 14 15  1  0
 15 16  2  0
 16 17  1  0
 17 18  2  0
 18 19  1  0
 19 20  2  0
 14 21  2  0
 10 22  1  0
 22 23  2  0
 22 24  1  0
 24 25  1  0
 25 26  2  0
 26 27  1  0
 27 28  2  0
 28 29  1  0
 29 30  2  0
 30 31  1  0
 31 32  2  0
 32 33  1  0
 33 34  2  0
 34 35  1  0
 35 36  2  0
  8 37  1  0
 37 38  2  0
  3 39  1  0
 39 40  2  0
 40 41  1  0
 41 42  1  0
 42 43  2  0
  2 44  1  0
 44 45  1  0
 45 46  2  0
 46 47  1  0
 47 48  2  0
 48 49  1  0
 49 50  2  0
 50 51  1  0
 51 52  2  0
 52 53  1  0
 53 54  2  0
 54 55  1  0
 55 56  2  0
 56  2  1  0
 38  5  1  0
 43 39  1  0
 50 45  1  0
 56 51  1  0
 21 11  1  0
 36 22  1  0
 20 15  1  0
 30 25  1  0
 36 31  1  0
M  END
>  <Candidate_ID>  (139) 
CAND_R2_139

>  <Candidate_Name>  (139) 
DIB-phenyl

>  <Parent_Seed_ID>  (139) 
TRAIN_057

>  <Parent_Name>  (139) 
DIB

>  <Transformation_Code>  (139) 
phenyl

>  <Design_Family>  (139) 
P-N

>  <Preparation_Type>  (139) 
Additive

>  <Synthesis_Level>  (139) 
B

>  <Parent_Tanimoto_r3>  (139) 
0.75

>  <Max_Train_Tanimoto_r3>  (139) 
0.75

>  <Risk_Flags>  (139) 
none

$$$$
CAND_R2_140 | DIB-biphenyl
     RDKit          2D

 62 72  0  0  0  0  0  0  0  0999 V2000
   10.8772   -6.0111    0.0000 O   0  0  0  0  0  0  0  0  0  0  0  0
   10.6168   -7.4883    0.0000 P   0  0  0  0  0  0  0  0  0  0  0  0
    9.2072   -6.9753    0.0000 C   0  0  0  0  0  0  0  0  0  0  0  0
    8.9468   -5.4981    0.0000 N   0  0  0  0  0  0  0  0  0  0  0  0
    7.5372   -4.9851    0.0000 C   0  0  0  0  0  0  0  0  0  0  0  0
    7.2768   -3.5078    0.0000 C   0  0  0  0  0  0  0  0  0  0  0  0
    5.8672   -2.9948    0.0000 C   0  0  0  0  0  0  0  0  0  0  0  0
    4.7181   -3.9590    0.0000 C   0  0  0  0  0  0  0  0  0  0  0  0
    3.3086   -3.4460    0.0000 N   0  0  0  0  0  0  0  0  0  0  0  0
    2.1595   -4.4101    0.0000 C   0  0  0  0  0  0  0  0  0  0  0  0
    2.4200   -5.8874    0.0000 C   0  0  0  0  0  0  0  0  0  0  0  0
    3.7682   -6.5449    0.0000 C   0  0  0  0  0  0  0  0  0  0  0  0
    3.5594   -8.0303    0.0000 N   0  0  0  0  0  0  0  0  0  0  0  0
    2.0822   -8.2908    0.0000 C   0  0  0  0  0  0  0  0  0  0  0  0
    1.4247   -9.6390    0.0000 C   0  0  0  0  0  0  0  0  0  0  0  0
   -0.0717   -9.7436    0.0000 C   0  0  0  0  0  0  0  0  0  0  0  0
   -0.7292  -11.0918    0.0000 C   0  0  0  0  0  0  0  0  0  0  0  0
    0.1096  -12.3354    0.0000 C   0  0  0  0  0  0  0  0  0  0  0  0
   -0.5480  -13.6836    0.0000 C   0  0  0  0  0  0  0  0  0  0  0  0
   -2.0443  -13.7882    0.0000 C   0  0  0  0  0  0  0  0  0  0  0  0
   -2.7019  -15.1364    0.0000 C   0  0  0  0  0  0  0  0  0  0  0  0
   -1.8631  -16.3799    0.0000 C   0  0  0  0  0  0  0  0  0  0  0  0
   -0.3668  -16.2753    0.0000 C   0  0  0  0  0  0  0  0  0  0  0  0
    0.2908  -14.9271    0.0000 C   0  0  0  0  0  0  0  0  0  0  0  0
    1.6059  -12.2307    0.0000 C   0  0  0  0  0  0  0  0  0  0  0  0
    2.2635  -10.8825    0.0000 C   0  0  0  0  0  0  0  0  0  0  0  0
    1.3780   -6.9664    0.0000 N   0  0  0  0  0  0  0  0  0  0  0  0
    0.7500   -3.8971    0.0000 P   0  0  0  0  0  0  0  0  0  0  0  0
    0.4895   -5.3743    0.0000 O   0  0  0  0  0  0  0  0  0  0  0  0
    1.5000   -2.5981    0.0000 O   0  0  0  0  0  0  0  0  0  0  0  0
    0.7500   -1.2990    0.0000 C   0  0  0  0  0  0  0  0  0  0  0  0
    1.5000    0.0000    0.0000 C   0  0  0  0  0  0  0  0  0  0  0  0
    0.7500    1.2990    0.0000 C   0  0  0  0  0  0  0  0  0  0  0  0
   -0.7500    1.2990    0.0000 C   0  0  0  0  0  0  0  0  0  0  0  0
   -1.5000    0.0000    0.0000 C   0  0  0  0  0  0  0  0  0  0  0  0
   -0.7500   -1.2990    0.0000 C   0  0  0  0  0  0  0  0  0  0  0  0
   -1.5000   -2.5981    0.0000 C   0  0  0  0  0  0  0  0  0  0  0  0
   -3.0000   -2.5981    0.0000 C   0  0  0  0  0  0  0  0  0  0  0  0
   -3.7500   -3.8971    0.0000 C   0  0  0  0  0  0  0  0  0  0  0  0
   -3.0000   -5.1962    0.0000 C   0  0  0  0  0  0  0  0  0  0  0  0
   -1.5000   -5.1962    0.0000 C   0  0  0  0  0  0  0  0  0  0  0  0
   -0.7500   -3.8971    0.0000 C   0  0  0  0  0  0  0  0  0  0  0  0
    4.9786   -5.4362    0.0000 C   0  0  0  0  0  0  0  0  0  0  0  0
    6.3882   -5.9492    0.0000 C   0  0  0  0  0  0  0  0  0  0  0  0
    8.0582   -7.9395    0.0000 C   0  0  0  0  0  0  0  0  0  0  0  0
    6.6027   -7.5766    0.0000 C   0  0  0  0  0  0  0  0  0  0  0  0
    5.8078   -8.8487    0.0000 N   0  0  0  0  0  0  0  0  0  0  0  0
    6.7720   -9.9977    0.0000 C   0  0  0  0  0  0  0  0  0  0  0  0
    8.1628   -9.4358    0.0000 N   0  0  0  0  0  0  0  0  0  0  0  0
    9.8668   -8.7874    0.0000 O   0  0  0  0  0  0  0  0  0  0  0  0
   10.6168  -10.0864    0.0000 C   0  0  0  0  0  0  0  0  0  0  0  0
    9.8668  -11.3854    0.0000 C   0  0  0  0  0  0  0  0  0  0  0  0
   10.6168  -12.6845    0.0000 C   0  0  0  0  0  0  0  0  0  0  0  0
   12.1168  -12.6845    0.0000 C   0  0  0  0  0  0  0  0  0  0  0  0
   12.8668  -11.3854    0.0000 C   0  0  0  0  0  0  0  0  0  0  0  0
   12.1168  -10.0864    0.0000 C   0  0  0  0  0  0  0  0  0  0  0  0
   12.8668   -8.7874    0.0000 C   0  0  0  0  0  0  0  0  0  0  0  0
   14.3668   -8.7874    0.0000 C   0  0  0  0  0  0  0  0  0  0  0  0
   15.1168   -7.4883    0.0000 C   0  0  0  0  0  0  0  0  0  0  0  0
   14.3668   -6.1893    0.0000 C   0  0  0  0  0  0  0  0  0  0  0  0
   12.8668   -6.1893    0.0000 C   0  0  0  0  0  0  0  0  0  0  0  0
   12.1168   -7.4883    0.0000 C   0  0  0  0  0  0  0  0  0  0  0  0
  1  2  2  0
  2  3  1  0
  3  4  1  0
  4  5  1  0
  5  6  2  0
  6  7  1  0
  7  8  2  0
  8  9  1  0
  9 10  1  0
 10 11  1  0
 11 12  2  0
 12 13  1  0
 13 14  1  0
 14 15  1  0
 15 16  2  0
 16 17  1  0
 17 18  2  0
 18 19  1  0
 19 20  2  0
 20 21  1  0
 21 22  2  0
 22 23  1  0
 23 24  2  0
 18 25  1  0
 25 26  2  0
 14 27  2  0
 10 28  1  0
 28 29  2  0
 28 30  1  0
 30 31  1  0
 31 32  2  0
 32 33  1  0
 33 34  2  0
 34 35  1  0
 35 36  2  0
 36 37  1  0
 37 38  2  0
 38 39  1  0
 39 40  2  0
 40 41  1  0
 41 42  2  0
  8 43  1  0
 43 44  2  0
  3 45  1  0
 45 46  2  0
 46 47  1  0
 47 48  1  0
 48 49  2  0
  2 50  1  0
 50 51  1  0
 51 52  2  0
 52 53  1  0
 53 54  2  0
 54 55  1  0
 55 56  2  0
 56 57  1  0
 57 58  2  0
 58 59  1  0
 59 60  2  0
 60 61  1  0
 61 62  2  0
 62  2  1  0
 44  5  1  0
 49 45  1  0
 56 51  1  0
 62 57  1  0
 27 11  1  0
 42 28  1  0
 26 15  1  0
 36 31  1  0
 42 37  1  0
 24 19  1  0
M  END
>  <Candidate_ID>  (140) 
CAND_R2_140

>  <Candidate_Name>  (140) 
DIB-biphenyl

>  <Parent_Seed_ID>  (140) 
TRAIN_057

>  <Parent_Name>  (140) 
DIB

>  <Transformation_Code>  (140) 
biphenyl

>  <Design_Family>  (140) 
P-N

>  <Preparation_Type>  (140) 
Additive

>  <Synthesis_Level>  (140) 
B

>  <Parent_Tanimoto_r3>  (140) 
0.7078651685393258

>  <Max_Train_Tanimoto_r3>  (140) 
0.7078651685393258

>  <Risk_Flags>  (140) 
none

$$$$
CAND_R2_141 | DIB-NH-methyl
     RDKit          2D

 51 59  0  0  0  0  0  0  0  0999 V2000
    9.2072   -6.9753    0.0000 C   0  0  0  0  0  0  0  0  0  0  0  0
    8.9468   -5.4981    0.0000 N   0  0  0  0  0  0  0  0  0  0  0  0
    7.5372   -4.9851    0.0000 C   0  0  0  0  0  0  0  0  0  0  0  0
    7.2768   -3.5078    0.0000 C   0  0  0  0  0  0  0  0  0  0  0  0
    5.8672   -2.9948    0.0000 C   0  0  0  0  0  0  0  0  0  0  0  0
    4.7181   -3.9590    0.0000 C   0  0  0  0  0  0  0  0  0  0  0  0
    3.3086   -3.4460    0.0000 N   0  0  0  0  0  0  0  0  0  0  0  0
    2.1595   -4.4101    0.0000 C   0  0  0  0  0  0  0  0  0  0  0  0
    2.4200   -5.8874    0.0000 C   0  0  0  0  0  0  0  0  0  0  0  0
    3.7682   -6.5449    0.0000 C   0  0  0  0  0  0  0  0  0  0  0  0
    3.5594   -8.0303    0.0000 N   0  0  0  0  0  0  0  0  0  0  0  0
    2.0822   -8.2908    0.0000 C   0  0  0  0  0  0  0  0  0  0  0  0
    1.3780   -6.9664    0.0000 N   0  0  0  0  0  0  0  0  0  0  0  0
    0.7500   -3.8971    0.0000 P   0  0  0  0  0  0  0  0  0  0  0  0
    0.4895   -5.3743    0.0000 O   0  0  0  0  0  0  0  0  0  0  0  0
    1.5000   -2.5981    0.0000 O   0  0  0  0  0  0  0  0  0  0  0  0
    0.7500   -1.2990    0.0000 C   0  0  0  0  0  0  0  0  0  0  0  0
    1.5000    0.0000    0.0000 C   0  0  0  0  0  0  0  0  0  0  0  0
    0.7500    1.2990    0.0000 C   0  0  0  0  0  0  0  0  0  0  0  0
   -0.7500    1.2990    0.0000 C   0  0  0  0  0  0  0  0  0  0  0  0
   -1.5000    0.0000    0.0000 C   0  0  0  0  0  0  0  0  0  0  0  0
   -0.7500   -1.2990    0.0000 C   0  0  0  0  0  0  0  0  0  0  0  0
   -1.5000   -2.5981    0.0000 C   0  0  0  0  0  0  0  0  0  0  0  0
   -3.0000   -2.5981    0.0000 C   0  0  0  0  0  0  0  0  0  0  0  0
   -3.7500   -3.8971    0.0000 C   0  0  0  0  0  0  0  0  0  0  0  0
   -3.0000   -5.1962    0.0000 C   0  0  0  0  0  0  0  0  0  0  0  0
   -1.5000   -5.1962    0.0000 C   0  0  0  0  0  0  0  0  0  0  0  0
   -0.7500   -3.8971    0.0000 C   0  0  0  0  0  0  0  0  0  0  0  0
    4.9786   -5.4362    0.0000 C   0  0  0  0  0  0  0  0  0  0  0  0
    6.3882   -5.9492    0.0000 C   0  0  0  0  0  0  0  0  0  0  0  0
   10.0958   -4.5339    0.0000 C   0  0  0  0  0  0  0  0  0  0  0  0
   11.5054   -5.0469    0.0000 C   0  0  0  0  0  0  0  0  0  0  0  0
   12.7489   -4.2081    0.0000 C   0  0  0  0  0  0  0  0  0  0  0  0
   13.9309   -5.1316    0.0000 N   0  0  0  0  0  0  0  0  0  0  0  0
   13.4179   -6.5412    0.0000 C   0  0  0  0  0  0  0  0  0  0  0  0
   11.9188   -6.4888    0.0000 N   0  0  0  0  0  0  0  0  0  0  0  0
    9.8354   -3.0567    0.0000 P   0  0  0  0  0  0  0  0  0  0  0  0
    8.4258   -3.5697    0.0000 O   0  0  0  0  0  0  0  0  0  0  0  0
   11.3354   -3.0567    0.0000 O   0  0  0  0  0  0  0  0  0  0  0  0
   12.0854   -1.7577    0.0000 C   0  0  0  0  0  0  0  0  0  0  0  0
   13.5854   -1.7577    0.0000 C   0  0  0  0  0  0  0  0  0  0  0  0
   14.3354   -0.4586    0.0000 C   0  0  0  0  0  0  0  0  0  0  0  0
   13.5854    0.8404    0.0000 C   0  0  0  0  0  0  0  0  0  0  0  0
   12.0854    0.8404    0.0000 C   0  0  0  0  0  0  0  0  0  0  0  0
   11.3354   -0.4586    0.0000 C   0  0  0  0  0  0  0  0  0  0  0  0
    9.8354   -0.4586    0.0000 C   0  0  0  0  0  0  0  0  0  0  0  0
    9.0854    0.8404    0.0000 C   0  0  0  0  0  0  0  0  0  0  0  0
    7.5854    0.8404    0.0000 C   0  0  0  0  0  0  0  0  0  0  0  0
    6.8354   -0.4586    0.0000 C   0  0  0  0  0  0  0  0  0  0  0  0
    7.5854   -1.7577    0.0000 C   0  0  0  0  0  0  0  0  0  0  0  0
    9.0854   -1.7577    0.0000 C   0  0  0  0  0  0  0  0  0  0  0  0
  1  2  1  0
  2  3  1  0
  3  4  2  0
  4  5  1  0
  5  6  2  0
  6  7  1  0
  7  8  1  0
  8  9  1  0
  9 10  2  0
 10 11  1  0
 11 12  1  0
 12 13  2  0
  8 14  1  0
 14 15  2  0
 14 16  1  0
 16 17  1  0
 17 18  2  0
 18 19  1  0
 19 20  2  0
 20 21  1  0
 21 22  2  0
 22 23  1  0
 23 24  2  0
 24 25  1  0
 25 26  2  0
 26 27  1  0
 27 28  2  0
  6 29  1  0
 29 30  2  0
  2 31  1  0
 31 32  1  0
 32 33  2  0
 33 34  1  0
 34 35  1  0
 35 36  2  0
 31 37  1  0
 37 38  2  0
 37 39  1  0
 39 40  1  0
 40 41  2  0
 41 42  1  0
 42 43  2  0
 43 44  1  0
 44 45  2  0
 45 46  1  0
 46 47  2  0
 47 48  1  0
 48 49  2  0
 49 50  1  0
 50 51  2  0
 30  3  1  0
 36 32  1  0
 51 37  1  0
 13  9  1  0
 28 14  1  0
 45 40  1  0
 51 46  1  0
 22 17  1  0
 28 23  1  0
M  END
>  <Candidate_ID>  (141) 
CAND_R2_141

>  <Candidate_Name>  (141) 
DIB-NH-methyl

>  <Parent_Seed_ID>  (141) 
TRAIN_057

>  <Parent_Name>  (141) 
DIB

>  <Transformation_Code>  (141) 
NH_methyl

>  <Design_Family>  (141) 
P-N

>  <Preparation_Type>  (141) 
Additive

>  <Synthesis_Level>  (141) 
B

>  <Parent_Tanimoto_r3>  (141) 
0.7380952380952381

>  <Max_Train_Tanimoto_r3>  (141) 
0.7380952380952381

>  <Risk_Flags>  (141) 
none

$$$$
CAND_R2_142 | DIB-NH-hydroxyethyl
     RDKit          2D

 53 61  0  0  0  0  0  0  0  0999 V2000
    4.0753    1.6150    0.0000 O   0  0  0  0  0  0  0  0  0  0  0  0
    4.8253    2.9140    0.0000 P   0  0  0  0  0  0  0  0  0  0  0  0
    3.4158    3.4271    0.0000 C   0  0  0  0  0  0  0  0  0  0  0  0
    2.2667    2.4629    0.0000 N   0  0  0  0  0  0  0  0  0  0  0  0
    2.5272    0.9857    0.0000 C   0  0  0  0  0  0  0  0  0  0  0  0
    1.3781    0.0215    0.0000 C   0  0  0  0  0  0  0  0  0  0  0  0
    1.6386   -1.4557    0.0000 C   0  0  0  0  0  0  0  0  0  0  0  0
    3.0481   -1.9688    0.0000 C   0  0  0  0  0  0  0  0  0  0  0  0
    3.3086   -3.4460    0.0000 N   0  0  0  0  0  0  0  0  0  0  0  0
    4.7181   -3.9590    0.0000 C   0  0  0  0  0  0  0  0  0  0  0  0
    5.8672   -2.9948    0.0000 C   0  0  0  0  0  0  0  0  0  0  0  0
    7.2768   -3.5078    0.0000 O   0  0  0  0  0  0  0  0  0  0  0  0
    2.1595   -4.4101    0.0000 C   0  0  0  0  0  0  0  0  0  0  0  0
    2.4200   -5.8874    0.0000 C   0  0  0  0  0  0  0  0  0  0  0  0
    3.7682   -6.5449    0.0000 C   0  0  0  0  0  0  0  0  0  0  0  0
    3.5594   -8.0303    0.0000 N   0  0  0  0  0  0  0  0  0  0  0  0
    2.0822   -8.2908    0.0000 C   0  0  0  0  0  0  0  0  0  0  0  0
    1.3780   -6.9664    0.0000 N   0  0  0  0  0  0  0  0  0  0  0  0
    0.7500   -3.8971    0.0000 P   0  0  0  0  0  0  0  0  0  0  0  0
    1.5000   -2.5981    0.0000 O   0  0  0  0  0  0  0  0  0  0  0  0
    0.4895   -5.3743    0.0000 O   0  0  0  0  0  0  0  0  0  0  0  0
   -0.9200   -5.8874    0.0000 C   0  0  0  0  0  0  0  0  0  0  0  0
   -1.1805   -7.3646    0.0000 C   0  0  0  0  0  0  0  0  0  0  0  0
   -2.5900   -7.8776    0.0000 C   0  0  0  0  0  0  0  0  0  0  0  0
   -3.7391   -6.9134    0.0000 C   0  0  0  0  0  0  0  0  0  0  0  0
   -3.4786   -5.4362    0.0000 C   0  0  0  0  0  0  0  0  0  0  0  0
   -2.0691   -4.9232    0.0000 C   0  0  0  0  0  0  0  0  0  0  0  0
   -1.8086   -3.4460    0.0000 C   0  0  0  0  0  0  0  0  0  0  0  0
   -2.9577   -2.4818    0.0000 C   0  0  0  0  0  0  0  0  0  0  0  0
   -2.6972   -1.0046    0.0000 C   0  0  0  0  0  0  0  0  0  0  0  0
   -1.2877   -0.4915    0.0000 C   0  0  0  0  0  0  0  0  0  0  0  0
   -0.1386   -1.4557    0.0000 C   0  0  0  0  0  0  0  0  0  0  0  0
   -0.3991   -2.9329    0.0000 C   0  0  0  0  0  0  0  0  0  0  0  0
    4.1972   -1.0046    0.0000 C   0  0  0  0  0  0  0  0  0  0  0  0
    3.9367    0.4726    0.0000 C   0  0  0  0  0  0  0  0  0  0  0  0
    3.1553    4.9043    0.0000 C   0  0  0  0  0  0  0  0  0  0  0  0
    1.8071    5.5618    0.0000 C   0  0  0  0  0  0  0  0  0  0  0  0
    2.0159    7.0472    0.0000 N   0  0  0  0  0  0  0  0  0  0  0  0
    3.4931    7.3077    0.0000 C   0  0  0  0  0  0  0  0  0  0  0  0
    4.1973    5.9833    0.0000 N   0  0  0  0  0  0  0  0  0  0  0  0
    5.0858    4.3912    0.0000 O   0  0  0  0  0  0  0  0  0  0  0  0
    6.4953    4.9043    0.0000 C   0  0  0  0  0  0  0  0  0  0  0  0
    6.7558    6.3815    0.0000 C   0  0  0  0  0  0  0  0  0  0  0  0
    8.1653    6.8945    0.0000 C   0  0  0  0  0  0  0  0  0  0  0  0
    9.3144    5.9303    0.0000 C   0  0  0  0  0  0  0  0  0  0  0  0
    9.0539    4.4531    0.0000 C   0  0  0  0  0  0  0  0  0  0  0  0
    7.6444    3.9401    0.0000 C   0  0  0  0  0  0  0  0  0  0  0  0
    7.3839    2.4629    0.0000 C   0  0  0  0  0  0  0  0  0  0  0  0
    8.5330    1.4987    0.0000 C   0  0  0  0  0  0  0  0  0  0  0  0
    8.2725    0.0215    0.0000 C   0  0  0  0  0  0  0  0  0  0  0  0
    6.8630   -0.4915    0.0000 C   0  0  0  0  0  0  0  0  0  0  0  0
    5.7139    0.4726    0.0000 C   0  0  0  0  0  0  0  0  0  0  0  0
    5.9744    1.9499    0.0000 C   0  0  0  0  0  0  0  0  0  0  0  0
  1  2  2  0
  2  3  1  0
  3  4  1  0
  4  5  1  0
  5  6  2  0
  6  7  1  0
  7  8  2  0
  8  9  1  0
  9 10  1  0
 10 11  1  0
 11 12  1  0
  9 13  1  0
 13 14  1  0
 14 15  2  0
 15 16  1  0
 16 17  1  0
 17 18  2  0
 13 19  1  0
 19 20  2  0
 19 21  1  0
 21 22  1  0
 22 23  2  0
 23 24  1  0
 24 25  2  0
 25 26  1  0
 26 27  2  0
 27 28  1  0
 28 29  2  0
 29 30  1  0
 30 31  2  0
 31 32  1  0
 32 33  2  0
  8 34  1  0
 34 35  2  0
  3 36  1  0
 36 37  2  0
 37 38  1  0
 38 39  1  0
 39 40  2  0
  2 41  1  0
 41 42  1  0
 42 43  2  0
 43 44  1  0
 44 45  2  0
 45 46  1  0
 46 47  2  0
 47 48  1  0
 48 49  2  0
 49 50  1  0
 50 51  2  0
 51 52  1  0
 52 53  2  0
 53  2  1  0
 35  5  1  0
 40 36  1  0
 47 42  1  0
 53 48  1  0
 18 14  1  0
 33 19  1  0
 27 22  1  0
 33 28  1  0
M  END
>  <Candidate_ID>  (142) 
CAND_R2_142

>  <Candidate_Name>  (142) 
DIB-NH-hydroxyethyl

>  <Parent_Seed_ID>  (142) 
TRAIN_057

>  <Parent_Name>  (142) 
DIB

>  <Transformation_Code>  (142) 
NH_hydroxyethyl

>  <Design_Family>  (142) 
P-N

>  <Preparation_Type>  (142) 
Additive

>  <Synthesis_Level>  (142) 
B

>  <Parent_Tanimoto_r3>  (142) 
0.6966292134831461

>  <Max_Train_Tanimoto_r3>  (142) 
0.6966292134831461

>  <Risk_Flags>  (142) 
candidate may be outside strict in-domain threshold

$$$$
CAND_R2_143 | DIB-NH-glycidyl
     RDKit          2D

 54 63  0  0  0  0  0  0  0  0999 V2000
    4.0753    1.6150    0.0000 O   0  0  0  0  0  0  0  0  0  0  0  0
    4.8253    2.9140    0.0000 P   0  0  0  0  0  0  0  0  0  0  0  0
    3.4158    3.4271    0.0000 C   0  0  0  0  0  0  0  0  0  0  0  0
    2.2667    2.4629    0.0000 N   0  0  0  0  0  0  0  0  0  0  0  0
    2.5272    0.9857    0.0000 C   0  0  0  0  0  0  0  0  0  0  0  0
    1.3781    0.0215    0.0000 C   0  0  0  0  0  0  0  0  0  0  0  0
    1.6386   -1.4557    0.0000 C   0  0  0  0  0  0  0  0  0  0  0  0
    3.0481   -1.9688    0.0000 C   0  0  0  0  0  0  0  0  0  0  0  0
    3.3086   -3.4460    0.0000 N   0  0  0  0  0  0  0  0  0  0  0  0
    4.7181   -3.9590    0.0000 C   0  0  0  0  0  0  0  0  0  0  0  0
    5.8672   -2.9948    0.0000 C   0  0  0  0  0  0  0  0  0  0  0  0
    6.3802   -1.5853    0.0000 C   0  0  0  0  0  0  0  0  0  0  0  0
    7.3444   -2.7343    0.0000 O   0  0  0  0  0  0  0  0  0  0  0  0
    2.1595   -4.4101    0.0000 C   0  0  0  0  0  0  0  0  0  0  0  0
    2.4200   -5.8874    0.0000 C   0  0  0  0  0  0  0  0  0  0  0  0
    3.7682   -6.5449    0.0000 C   0  0  0  0  0  0  0  0  0  0  0  0
    3.5594   -8.0303    0.0000 N   0  0  0  0  0  0  0  0  0  0  0  0
    2.0822   -8.2908    0.0000 C   0  0  0  0  0  0  0  0  0  0  0  0
    1.3780   -6.9664    0.0000 N   0  0  0  0  0  0  0  0  0  0  0  0
    0.7500   -3.8971    0.0000 P   0  0  0  0  0  0  0  0  0  0  0  0
    1.5000   -2.5981    0.0000 O   0  0  0  0  0  0  0  0  0  0  0  0
    0.4895   -5.3743    0.0000 O   0  0  0  0  0  0  0  0  0  0  0  0
   -0.9200   -5.8874    0.0000 C   0  0  0  0  0  0  0  0  0  0  0  0
   -1.1805   -7.3646    0.0000 C   0  0  0  0  0  0  0  0  0  0  0  0
   -2.5900   -7.8776    0.0000 C   0  0  0  0  0  0  0  0  0  0  0  0
   -3.7391   -6.9134    0.0000 C   0  0  0  0  0  0  0  0  0  0  0  0
   -3.4786   -5.4362    0.0000 C   0  0  0  0  0  0  0  0  0  0  0  0
   -2.0691   -4.9232    0.0000 C   0  0  0  0  0  0  0  0  0  0  0  0
   -1.8086   -3.4460    0.0000 C   0  0  0  0  0  0  0  0  0  0  0  0
   -2.9577   -2.4818    0.0000 C   0  0  0  0  0  0  0  0  0  0  0  0
   -2.6972   -1.0046    0.0000 C   0  0  0  0  0  0  0  0  0  0  0  0
   -1.2877   -0.4915    0.0000 C   0  0  0  0  0  0  0  0  0  0  0  0
   -0.1386   -1.4557    0.0000 C   0  0  0  0  0  0  0  0  0  0  0  0
   -0.3991   -2.9329    0.0000 C   0  0  0  0  0  0  0  0  0  0  0  0
    4.1972   -1.0046    0.0000 C   0  0  0  0  0  0  0  0  0  0  0  0
    3.9367    0.4726    0.0000 C   0  0  0  0  0  0  0  0  0  0  0  0
    3.1553    4.9043    0.0000 C   0  0  0  0  0  0  0  0  0  0  0  0
    1.8071    5.5618    0.0000 C   0  0  0  0  0  0  0  0  0  0  0  0
    2.0159    7.0472    0.0000 N   0  0  0  0  0  0  0  0  0  0  0  0
    3.4931    7.3077    0.0000 C   0  0  0  0  0  0  0  0  0  0  0  0
    4.1973    5.9833    0.0000 N   0  0  0  0  0  0  0  0  0  0  0  0
    5.0858    4.3912    0.0000 O   0  0  0  0  0  0  0  0  0  0  0  0
    6.4953    4.9043    0.0000 C   0  0  0  0  0  0  0  0  0  0  0  0
    6.7558    6.3815    0.0000 C   0  0  0  0  0  0  0  0  0  0  0  0
    8.1653    6.8945    0.0000 C   0  0  0  0  0  0  0  0  0  0  0  0
    9.3144    5.9303    0.0000 C   0  0  0  0  0  0  0  0  0  0  0  0
    9.0539    4.4531    0.0000 C   0  0  0  0  0  0  0  0  0  0  0  0
    7.6444    3.9401    0.0000 C   0  0  0  0  0  0  0  0  0  0  0  0
    7.3839    2.4629    0.0000 C   0  0  0  0  0  0  0  0  0  0  0  0
    8.5330    1.4987    0.0000 C   0  0  0  0  0  0  0  0  0  0  0  0
    8.2725    0.0215    0.0000 C   0  0  0  0  0  0  0  0  0  0  0  0
    6.8630   -0.4915    0.0000 C   0  0  0  0  0  0  0  0  0  0  0  0
    5.7139    0.4726    0.0000 C   0  0  0  0  0  0  0  0  0  0  0  0
    5.9744    1.9499    0.0000 C   0  0  0  0  0  0  0  0  0  0  0  0
  1  2  2  0
  2  3  1  0
  3  4  1  0
  4  5  1  0
  5  6  2  0
  6  7  1  0
  7  8  2  0
  8  9  1  0
  9 10  1  0
 10 11  1  0
 11 12  1  0
 12 13  1  0
  9 14  1  0
 14 15  1  0
 15 16  2  0
 16 17  1  0
 17 18  1  0
 18 19  2  0
 14 20  1  0
 20 21  2  0
 20 22  1  0
 22 23  1  0
 23 24  2  0
 24 25  1  0
 25 26  2  0
 26 27  1  0
 27 28  2  0
 28 29  1  0
 29 30  2  0
 30 31  1  0
 31 32  2  0
 32 33  1  0
 33 34  2  0
  8 35  1  0
 35 36  2  0
  3 37  1  0
 37 38  2  0
 38 39  1  0
 39 40  1  0
 40 41  2  0
  2 42  1  0
 42 43  1  0
 43 44  2  0
 44 45  1  0
 45 46  2  0
 46 47  1  0
 47 48  2  0
 48 49  1  0
 49 50  2  0
 50 51  1  0
 51 52  2  0
 52 53  1  0
 53 54  2  0
 54  2  1  0
 36  5  1  0
 41 37  1  0
 48 43  1  0
 54 49  1  0
 13 11  1  0
 19 15  1  0
 34 20  1  0
 28 23  1  0
 34 29  1  0
M  END
>  <Candidate_ID>  (143) 
CAND_R2_143

>  <Candidate_Name>  (143) 
DIB-NH-glycidyl

>  <Parent_Seed_ID>  (143) 
TRAIN_057

>  <Parent_Name>  (143) 
DIB

>  <Transformation_Code>  (143) 
NH_glycidyl

>  <Design_Family>  (143) 
P-N

>  <Preparation_Type>  (143) 
Co-curing

>  <Synthesis_Level>  (143) 
B

>  <Parent_Tanimoto_r3>  (143) 
0.6666666666666666

>  <Max_Train_Tanimoto_r3>  (143) 
0.6666666666666666

>  <Risk_Flags>  (143) 
candidate may be outside strict in-domain threshold

$$$$
CAND_R2_144 | DTB-amino
     RDKit          2D

 43 46  0  0  0  0  0  0  0  0999 V2000
  -14.2930   -4.8538    0.0000 C   0  0  0  0  0  0  0  0  0  0  0  0
  -12.8835   -5.3669    0.0000 C   0  0  0  0  0  0  0  0  0  0  0  0
  -11.7344   -4.4027    0.0000 C   0  0  0  0  0  0  0  0  0  0  0  0
  -11.9949   -2.9255    0.0000 O   0  0  0  0  0  0  0  0  0  0  0  0
  -10.3249   -4.9157    0.0000 C   0  0  0  0  0  0  0  0  0  0  0  0
   -9.1758   -3.9515    0.0000 N   0  0  0  0  0  0  0  0  0  0  0  0
   -9.4363   -2.4743    0.0000 C   0  0  0  0  0  0  0  0  0  0  0  0
  -10.8458   -1.9613    0.0000 O   0  0  0  0  0  0  0  0  0  0  0  0
   -8.2872   -1.5101    0.0000 N   0  0  0  0  0  0  0  0  0  0  0  0
   -8.5477   -0.0329    0.0000 C   0  0  0  0  0  0  0  0  0  0  0  0
   -7.3986    0.9313    0.0000 C   0  0  0  0  0  0  0  0  0  0  0  0
   -5.9891    0.4182    0.0000 O   0  0  0  0  0  0  0  0  0  0  0  0
   -7.6591    2.4085    0.0000 C   0  0  0  0  0  0  0  0  0  0  0  0
   -6.5100    3.3726    0.0000 O   0  0  0  0  0  0  0  0  0  0  0  0
   -6.7705    4.8499    0.0000 B   0  0  0  0  0  0  0  0  0  0  0  0
   -5.6214    5.8140    0.0000 O   0  0  0  0  0  0  0  0  0  0  0  0
   -8.1800    5.3629    0.0000 O   0  0  0  0  0  0  0  0  0  0  0  0
   -8.4405    6.8401    0.0000 C   0  0  0  0  0  0  0  0  0  0  0  0
   -6.8777   -2.0232    0.0000 C   0  0  0  0  0  0  0  0  0  0  0  0
   -5.7286   -1.0590    0.0000 O   0  0  0  0  0  0  0  0  0  0  0  0
   -6.6172   -3.5004    0.0000 N   0  0  0  0  0  0  0  0  0  0  0  0
   -5.2077   -4.0134    0.0000 C   0  0  0  0  0  0  0  0  0  0  0  0
   -4.0586   -3.0492    0.0000 C   0  0  0  0  0  0  0  0  0  0  0  0
   -4.3191   -1.5720    0.0000 O   0  0  0  0  0  0  0  0  0  0  0  0
   -2.6491   -3.5623    0.0000 C   0  0  0  0  0  0  0  0  0  0  0  0
   -1.5000   -2.5981    0.0000 P   0  0  0  0  0  0  0  0  0  0  0  0
   -2.6491   -1.6339    0.0000 O   0  0  0  0  0  0  0  0  0  0  0  0
   -0.7500   -3.8971    0.0000 O   0  0  0  0  0  0  0  0  0  0  0  0
    0.7500   -3.8971    0.0000 C   0  0  0  0  0  0  0  0  0  0  0  0
    1.5000   -5.1962    0.0000 C   0  0  0  0  0  0  0  0  0  0  0  0
    3.0000   -5.1962    0.0000 C   0  0  0  0  0  0  0  0  0  0  0  0
    3.7500   -3.8971    0.0000 C   0  0  0  0  0  0  0  0  0  0  0  0
    5.2500   -3.8971    0.0000 N   0  0  0  0  0  0  0  0  0  0  0  0
    3.0000   -2.5981    0.0000 C   0  0  0  0  0  0  0  0  0  0  0  0
    1.5000   -2.5981    0.0000 C   0  0  0  0  0  0  0  0  0  0  0  0
    0.7500   -1.2990    0.0000 C   0  0  0  0  0  0  0  0  0  0  0  0
    1.5000    0.0000    0.0000 C   0  0  0  0  0  0  0  0  0  0  0  0
    0.7500    1.2990    0.0000 C   0  0  0  0  0  0  0  0  0  0  0  0
   -0.7500    1.2990    0.0000 C   0  0  0  0  0  0  0  0  0  0  0  0
   -1.5000    0.0000    0.0000 C   0  0  0  0  0  0  0  0  0  0  0  0
   -0.7500   -1.2990    0.0000 C   0  0  0  0  0  0  0  0  0  0  0  0
   -7.7663   -4.4646    0.0000 C   0  0  0  0  0  0  0  0  0  0  0  0
   -7.5058   -5.9418    0.0000 O   0  0  0  0  0  0  0  0  0  0  0  0
  1  2  1  0
  2  3  1  0
  3  4  1  0
  3  5  1  0
  5  6  1  0
  6  7  1  0
  7  8  2  0
  7  9  1  0
  9 10  1  0
 10 11  1  0
 11 12  1  0
 11 13  1  0
 13 14  1  0
 14 15  1  0
 15 16  1  0
 15 17  1  0
 17 18  1  0
  9 19  1  0
 19 20  2  0
 19 21  1  0
 21 22  1  0
 22 23  1  0
 23 24  1  0
 23 25  1  0
 25 26  1  0
 26 27  2  0
 26 28  1  0
 28 29  1  0
 29 30  2  0
 30 31  1  0
 31 32  2  0
 32 33  1  0
 32 34  1  0
 34 35  2  0
 35 36  1  0
 36 37  2  0
 37 38  1  0
 38 39  2  0
 39 40  1  0
 40 41  2  0
 21 42  1  0
 42 43  2  0
 42  6  1  0
 41 26  1  0
 35 29  1  0
 41 36  1  0
M  END
>  <Candidate_ID>  (144) 
CAND_R2_144

>  <Candidate_Name>  (144) 
DTB-amino

>  <Parent_Seed_ID>  (144) 
TRAIN_018

>  <Parent_Name>  (144) 
DTB

>  <Transformation_Code>  (144) 
amino

>  <Design_Family>  (144) 
P-N-B

>  <Preparation_Type>  (144) 
Co-curing

>  <Synthesis_Level>  (144) 
B

>  <Parent_Tanimoto_r3>  (144) 
0.7684210526315789

>  <Max_Train_Tanimoto_r3>  (144) 
0.7684210526315789

>  <Risk_Flags>  (144) 
DOPO-core substitution route needs confirmation

$$$$
CAND_R2_145 | DTB-hydroxy
     RDKit          2D

 43 46  0  0  0  0  0  0  0  0999 V2000
  -14.2930   -4.8538    0.0000 C   0  0  0  0  0  0  0  0  0  0  0  0
  -12.8835   -5.3669    0.0000 C   0  0  0  0  0  0  0  0  0  0  0  0
  -11.7344   -4.4027    0.0000 C   0  0  0  0  0  0  0  0  0  0  0  0
  -11.9949   -2.9255    0.0000 O   0  0  0  0  0  0  0  0  0  0  0  0
  -10.3249   -4.9157    0.0000 C   0  0  0  0  0  0  0  0  0  0  0  0
   -9.1758   -3.9515    0.0000 N   0  0  0  0  0  0  0  0  0  0  0  0
   -9.4363   -2.4743    0.0000 C   0  0  0  0  0  0  0  0  0  0  0  0
  -10.8458   -1.9613    0.0000 O   0  0  0  0  0  0  0  0  0  0  0  0
   -8.2872   -1.5101    0.0000 N   0  0  0  0  0  0  0  0  0  0  0  0
   -8.5477   -0.0329    0.0000 C   0  0  0  0  0  0  0  0  0  0  0  0
   -7.3986    0.9313    0.0000 C   0  0  0  0  0  0  0  0  0  0  0  0
   -5.9891    0.4182    0.0000 O   0  0  0  0  0  0  0  0  0  0  0  0
   -7.6591    2.4085    0.0000 C   0  0  0  0  0  0  0  0  0  0  0  0
   -6.5100    3.3726    0.0000 O   0  0  0  0  0  0  0  0  0  0  0  0
   -6.7705    4.8499    0.0000 B   0  0  0  0  0  0  0  0  0  0  0  0
   -5.6214    5.8140    0.0000 O   0  0  0  0  0  0  0  0  0  0  0  0
   -8.1800    5.3629    0.0000 O   0  0  0  0  0  0  0  0  0  0  0  0
   -8.4405    6.8401    0.0000 C   0  0  0  0  0  0  0  0  0  0  0  0
   -6.8777   -2.0232    0.0000 C   0  0  0  0  0  0  0  0  0  0  0  0
   -5.7286   -1.0590    0.0000 O   0  0  0  0  0  0  0  0  0  0  0  0
   -6.6172   -3.5004    0.0000 N   0  0  0  0  0  0  0  0  0  0  0  0
   -5.2077   -4.0134    0.0000 C   0  0  0  0  0  0  0  0  0  0  0  0
   -4.0586   -3.0492    0.0000 C   0  0  0  0  0  0  0  0  0  0  0  0
   -4.3191   -1.5720    0.0000 O   0  0  0  0  0  0  0  0  0  0  0  0
   -2.6491   -3.5623    0.0000 C   0  0  0  0  0  0  0  0  0  0  0  0
   -1.5000   -2.5981    0.0000 P   0  0  0  0  0  0  0  0  0  0  0  0
   -2.6491   -1.6339    0.0000 O   0  0  0  0  0  0  0  0  0  0  0  0
   -0.7500   -3.8971    0.0000 O   0  0  0  0  0  0  0  0  0  0  0  0
    0.7500   -3.8971    0.0000 C   0  0  0  0  0  0  0  0  0  0  0  0
    1.5000   -5.1962    0.0000 C   0  0  0  0  0  0  0  0  0  0  0  0
    3.0000   -5.1962    0.0000 C   0  0  0  0  0  0  0  0  0  0  0  0
    3.7500   -3.8971    0.0000 C   0  0  0  0  0  0  0  0  0  0  0  0
    5.2500   -3.8971    0.0000 O   0  0  0  0  0  0  0  0  0  0  0  0
    3.0000   -2.5981    0.0000 C   0  0  0  0  0  0  0  0  0  0  0  0
    1.5000   -2.5981    0.0000 C   0  0  0  0  0  0  0  0  0  0  0  0
    0.7500   -1.2990    0.0000 C   0  0  0  0  0  0  0  0  0  0  0  0
    1.5000    0.0000    0.0000 C   0  0  0  0  0  0  0  0  0  0  0  0
    0.7500    1.2990    0.0000 C   0  0  0  0  0  0  0  0  0  0  0  0
   -0.7500    1.2990    0.0000 C   0  0  0  0  0  0  0  0  0  0  0  0
   -1.5000    0.0000    0.0000 C   0  0  0  0  0  0  0  0  0  0  0  0
   -0.7500   -1.2990    0.0000 C   0  0  0  0  0  0  0  0  0  0  0  0
   -7.7663   -4.4646    0.0000 C   0  0  0  0  0  0  0  0  0  0  0  0
   -7.5058   -5.9418    0.0000 O   0  0  0  0  0  0  0  0  0  0  0  0
  1  2  1  0
  2  3  1  0
  3  4  1  0
  3  5  1  0
  5  6  1  0
  6  7  1  0
  7  8  2  0
  7  9  1  0
  9 10  1  0
 10 11  1  0
 11 12  1  0
 11 13  1  0
 13 14  1  0
 14 15  1  0
 15 16  1  0
 15 17  1  0
 17 18  1  0
  9 19  1  0
 19 20  2  0
 19 21  1  0
 21 22  1  0
 22 23  1  0
 23 24  1  0
 23 25  1  0
 25 26  1  0
 26 27  2  0
 26 28  1  0
 28 29  1  0
 29 30  2  0
 30 31  1  0
 31 32  2  0
 32 33  1  0
 32 34  1  0
 34 35  2  0
 35 36  1  0
 36 37  2  0
 37 38  1  0
 38 39  2  0
 39 40  1  0
 40 41  2  0
 21 42  1  0
 42 43  2  0
 42  6  1  0
 41 26  1  0
 35 29  1  0
 41 36  1  0
M  END
>  <Candidate_ID>  (145) 
CAND_R2_145

>  <Candidate_Name>  (145) 
DTB-hydroxy

>  <Parent_Seed_ID>  (145) 
TRAIN_018

>  <Parent_Name>  (145) 
DTB

>  <Transformation_Code>  (145) 
hydroxy

>  <Design_Family>  (145) 
P-N-B

>  <Preparation_Type>  (145) 
Additive

>  <Synthesis_Level>  (145) 
B

>  <Parent_Tanimoto_r3>  (145) 
0.7684210526315789

>  <Max_Train_Tanimoto_r3>  (145) 
0.7684210526315789

>  <Risk_Flags>  (145) 
DOPO-core substitution route needs confirmation

$$$$
CAND_R2_146 | DTB-hydroxymethyl
     RDKit          2D

 44 47  0  0  0  0  0  0  0  0999 V2000
  -14.2930   -4.8538    0.0000 C   0  0  0  0  0  0  0  0  0  0  0  0
  -12.8835   -5.3669    0.0000 C   0  0  0  0  0  0  0  0  0  0  0  0
  -11.7344   -4.4027    0.0000 C   0  0  0  0  0  0  0  0  0  0  0  0
  -11.9949   -2.9255    0.0000 O   0  0  0  0  0  0  0  0  0  0  0  0
  -10.3249   -4.9157    0.0000 C   0  0  0  0  0  0  0  0  0  0  0  0
   -9.1758   -3.9515    0.0000 N   0  0  0  0  0  0  0  0  0  0  0  0
   -9.4363   -2.4743    0.0000 C   0  0  0  0  0  0  0  0  0  0  0  0
  -10.8458   -1.9613    0.0000 O   0  0  0  0  0  0  0  0  0  0  0  0
   -8.2872   -1.5101    0.0000 N   0  0  0  0  0  0  0  0  0  0  0  0
   -8.5477   -0.0329    0.0000 C   0  0  0  0  0  0  0  0  0  0  0  0
   -7.3986    0.9313    0.0000 C   0  0  0  0  0  0  0  0  0  0  0  0
   -5.9891    0.4182    0.0000 O   0  0  0  0  0  0  0  0  0  0  0  0
   -7.6591    2.4085    0.0000 C   0  0  0  0  0  0  0  0  0  0  0  0
   -6.5100    3.3726    0.0000 O   0  0  0  0  0  0  0  0  0  0  0  0
   -6.7705    4.8499    0.0000 B   0  0  0  0  0  0  0  0  0  0  0  0
   -5.6214    5.8140    0.0000 O   0  0  0  0  0  0  0  0  0  0  0  0
   -8.1800    5.3629    0.0000 O   0  0  0  0  0  0  0  0  0  0  0  0
   -8.4405    6.8401    0.0000 C   0  0  0  0  0  0  0  0  0  0  0  0
   -6.8777   -2.0232    0.0000 C   0  0  0  0  0  0  0  0  0  0  0  0
   -5.7286   -1.0590    0.0000 O   0  0  0  0  0  0  0  0  0  0  0  0
   -6.6172   -3.5004    0.0000 N   0  0  0  0  0  0  0  0  0  0  0  0
   -5.2077   -4.0134    0.0000 C   0  0  0  0  0  0  0  0  0  0  0  0
   -4.0586   -3.0492    0.0000 C   0  0  0  0  0  0  0  0  0  0  0  0
   -4.3191   -1.5720    0.0000 O   0  0  0  0  0  0  0  0  0  0  0  0
   -2.6491   -3.5623    0.0000 C   0  0  0  0  0  0  0  0  0  0  0  0
   -1.5000   -2.5981    0.0000 P   0  0  0  0  0  0  0  0  0  0  0  0
   -2.6491   -1.6339    0.0000 O   0  0  0  0  0  0  0  0  0  0  0  0
   -0.7500   -3.8971    0.0000 O   0  0  0  0  0  0  0  0  0  0  0  0
    0.7500   -3.8971    0.0000 C   0  0  0  0  0  0  0  0  0  0  0  0
    1.5000   -5.1962    0.0000 C   0  0  0  0  0  0  0  0  0  0  0  0
    3.0000   -5.1962    0.0000 C   0  0  0  0  0  0  0  0  0  0  0  0
    3.7500   -3.8971    0.0000 C   0  0  0  0  0  0  0  0  0  0  0  0
    5.2500   -3.8971    0.0000 C   0  0  0  0  0  0  0  0  0  0  0  0
    6.0000   -5.1962    0.0000 O   0  0  0  0  0  0  0  0  0  0  0  0
    3.0000   -2.5981    0.0000 C   0  0  0  0  0  0  0  0  0  0  0  0
    1.5000   -2.5981    0.0000 C   0  0  0  0  0  0  0  0  0  0  0  0
    0.7500   -1.2990    0.0000 C   0  0  0  0  0  0  0  0  0  0  0  0
    1.5000    0.0000    0.0000 C   0  0  0  0  0  0  0  0  0  0  0  0
    0.7500    1.2990    0.0000 C   0  0  0  0  0  0  0  0  0  0  0  0
   -0.7500    1.2990    0.0000 C   0  0  0  0  0  0  0  0  0  0  0  0
   -1.5000    0.0000    0.0000 C   0  0  0  0  0  0  0  0  0  0  0  0
   -0.7500   -1.2990    0.0000 C   0  0  0  0  0  0  0  0  0  0  0  0
   -7.7663   -4.4646    0.0000 C   0  0  0  0  0  0  0  0  0  0  0  0
   -7.5058   -5.9418    0.0000 O   0  0  0  0  0  0  0  0  0  0  0  0
  1  2  1  0
  2  3  1  0
  3  4  1  0
  3  5  1  0
  5  6  1  0
  6  7  1  0
  7  8  2  0
  7  9  1  0
  9 10  1  0
 10 11  1  0
 11 12  1  0
 11 13  1  0
 13 14  1  0
 14 15  1  0
 15 16  1  0
 15 17  1  0
 17 18  1  0
  9 19  1  0
 19 20  2  0
 19 21  1  0
 21 22  1  0
 22 23  1  0
 23 24  1  0
 23 25  1  0
 25 26  1  0
 26 27  2  0
 26 28  1  0
 28 29  1  0
 29 30  2  0
 30 31  1  0
 31 32  2  0
 32 33  1  0
 33 34  1  0
 32 35  1  0
 35 36  2  0
 36 37  1  0
 37 38  2  0
 38 39  1  0
 39 40  2  0
 40 41  1  0
 41 42  2  0
 21 43  1  0
 43 44  2  0
 43  6  1  0
 42 26  1  0
 36 29  1  0
 42 37  1  0
M  END
>  <Candidate_ID>  (146) 
CAND_R2_146

>  <Candidate_Name>  (146) 
DTB-hydroxymethyl

>  <Parent_Seed_ID>  (146) 
TRAIN_018

>  <Parent_Name>  (146) 
DTB

>  <Transformation_Code>  (146) 
hydroxymethyl

>  <Design_Family>  (146) 
P-N-B

>  <Preparation_Type>  (146) 
Additive

>  <Synthesis_Level>  (146) 
B

>  <Parent_Tanimoto_r3>  (146) 
0.7604166666666666

>  <Max_Train_Tanimoto_r3>  (146) 
0.7604166666666666

>  <Risk_Flags>  (146) 
DOPO-core substitution route needs confirmation

$$$$
CAND_R2_147 | DTB-carboxamide
     RDKit          2D

 45 48  0  0  0  0  0  0  0  0999 V2000
  -14.2930   -4.8538    0.0000 C   0  0  0  0  0  0  0  0  0  0  0  0
  -12.8835   -5.3669    0.0000 C   0  0  0  0  0  0  0  0  0  0  0  0
  -11.7344   -4.4027    0.0000 C   0  0  0  0  0  0  0  0  0  0  0  0
  -11.9949   -2.9255    0.0000 O   0  0  0  0  0  0  0  0  0  0  0  0
  -10.3249   -4.9157    0.0000 C   0  0  0  0  0  0  0  0  0  0  0  0
   -9.1758   -3.9515    0.0000 N   0  0  0  0  0  0  0  0  0  0  0  0
   -9.4363   -2.4743    0.0000 C   0  0  0  0  0  0  0  0  0  0  0  0
  -10.8458   -1.9613    0.0000 O   0  0  0  0  0  0  0  0  0  0  0  0
   -8.2872   -1.5101    0.0000 N   0  0  0  0  0  0  0  0  0  0  0  0
   -8.5477   -0.0329    0.0000 C   0  0  0  0  0  0  0  0  0  0  0  0
   -7.3986    0.9313    0.0000 C   0  0  0  0  0  0  0  0  0  0  0  0
   -5.9891    0.4182    0.0000 O   0  0  0  0  0  0  0  0  0  0  0  0
   -7.6591    2.4085    0.0000 C   0  0  0  0  0  0  0  0  0  0  0  0
   -6.5100    3.3726    0.0000 O   0  0  0  0  0  0  0  0  0  0  0  0
   -6.7705    4.8499    0.0000 B   0  0  0  0  0  0  0  0  0  0  0  0
   -5.6214    5.8140    0.0000 O   0  0  0  0  0  0  0  0  0  0  0  0
   -8.1800    5.3629    0.0000 O   0  0  0  0  0  0  0  0  0  0  0  0
   -8.4405    6.8401    0.0000 C   0  0  0  0  0  0  0  0  0  0  0  0
   -6.8777   -2.0232    0.0000 C   0  0  0  0  0  0  0  0  0  0  0  0
   -5.7286   -1.0590    0.0000 O   0  0  0  0  0  0  0  0  0  0  0  0
   -6.6172   -3.5004    0.0000 N   0  0  0  0  0  0  0  0  0  0  0  0
   -5.2077   -4.0134    0.0000 C   0  0  0  0  0  0  0  0  0  0  0  0
   -4.0586   -3.0492    0.0000 C   0  0  0  0  0  0  0  0  0  0  0  0
   -4.3191   -1.5720    0.0000 O   0  0  0  0  0  0  0  0  0  0  0  0
   -2.6491   -3.5623    0.0000 C   0  0  0  0  0  0  0  0  0  0  0  0
   -1.5000   -2.5981    0.0000 P   0  0  0  0  0  0  0  0  0  0  0  0
   -2.6491   -1.6339    0.0000 O   0  0  0  0  0  0  0  0  0  0  0  0
   -0.7500   -3.8971    0.0000 O   0  0  0  0  0  0  0  0  0  0  0  0
    0.7500   -3.8971    0.0000 C   0  0  0  0  0  0  0  0  0  0  0  0
    1.5000   -5.1962    0.0000 C   0  0  0  0  0  0  0  0  0  0  0  0
    3.0000   -5.1962    0.0000 C   0  0  0  0  0  0  0  0  0  0  0  0
    3.7500   -3.8971    0.0000 C   0  0  0  0  0  0  0  0  0  0  0  0
    5.2500   -3.8971    0.0000 C   0  0  0  0  0  0  0  0  0  0  0  0
    6.0000   -5.1962    0.0000 N   0  0  0  0  0  0  0  0  0  0  0  0
    6.0000   -2.5981    0.0000 O   0  0  0  0  0  0  0  0  0  0  0  0
    3.0000   -2.5981    0.0000 C   0  0  0  0  0  0  0  0  0  0  0  0
    1.5000   -2.5981    0.0000 C   0  0  0  0  0  0  0  0  0  0  0  0
    0.7500   -1.2990    0.0000 C   0  0  0  0  0  0  0  0  0  0  0  0
    1.5000    0.0000    0.0000 C   0  0  0  0  0  0  0  0  0  0  0  0
    0.7500    1.2990    0.0000 C   0  0  0  0  0  0  0  0  0  0  0  0
   -0.7500    1.2990    0.0000 C   0  0  0  0  0  0  0  0  0  0  0  0
   -1.5000    0.0000    0.0000 C   0  0  0  0  0  0  0  0  0  0  0  0
   -0.7500   -1.2990    0.0000 C   0  0  0  0  0  0  0  0  0  0  0  0
   -7.7663   -4.4646    0.0000 C   0  0  0  0  0  0  0  0  0  0  0  0
   -7.5058   -5.9418    0.0000 O   0  0  0  0  0  0  0  0  0  0  0  0
  1  2  1  0
  2  3  1  0
  3  4  1  0
  3  5  1  0
  5  6  1  0
  6  7  1  0
  7  8  2  0
  7  9  1  0
  9 10  1  0
 10 11  1  0
 11 12  1  0
 11 13  1  0
 13 14  1  0
 14 15  1  0
 15 16  1  0
 15 17  1  0
 17 18  1  0
  9 19  1  0
 19 20  2  0
 19 21  1  0
 21 22  1  0
 22 23  1  0
 23 24  1  0
 23 25  1  0
 25 26  1  0
 26 27  2  0
 26 28  1  0
 28 29  1  0
 29 30  2  0
 30 31  1  0
 31 32  2  0
 32 33  1  0
 33 34  1  0
 33 35  2  0
 32 36  1  0
 36 37  2  0
 37 38  1  0
 38 39  2  0
 39 40  1  0
 40 41  2  0
 41 42  1  0
 42 43  2  0
 21 44  1  0
 44 45  2  0
 44  6  1  0
 43 26  1  0
 37 29  1  0
 43 38  1  0
M  END
>  <Candidate_ID>  (147) 
CAND_R2_147

>  <Candidate_Name>  (147) 
DTB-carboxamide

>  <Parent_Seed_ID>  (147) 
TRAIN_018

>  <Parent_Name>  (147) 
DTB

>  <Transformation_Code>  (147) 
carboxamide

>  <Design_Family>  (147) 
P-N-B

>  <Preparation_Type>  (147) 
Additive

>  <Synthesis_Level>  (147) 
B

>  <Parent_Tanimoto_r3>  (147) 
0.7373737373737373

>  <Max_Train_Tanimoto_r3>  (147) 
0.7373737373737373

>  <Risk_Flags>  (147) 
DOPO-core substitution route needs confirmation

$$$$
CAND_R2_148 | DTB-boronic-acid
     RDKit          2D

 45 48  0  0  0  0  0  0  0  0999 V2000
  -14.2930   -4.8538    0.0000 C   0  0  0  0  0  0  0  0  0  0  0  0
  -12.8835   -5.3669    0.0000 C   0  0  0  0  0  0  0  0  0  0  0  0
  -11.7344   -4.4027    0.0000 C   0  0  0  0  0  0  0  0  0  0  0  0
  -11.9949   -2.9255    0.0000 O   0  0  0  0  0  0  0  0  0  0  0  0
  -10.3249   -4.9157    0.0000 C   0  0  0  0  0  0  0  0  0  0  0  0
   -9.1758   -3.9515    0.0000 N   0  0  0  0  0  0  0  0  0  0  0  0
   -9.4363   -2.4743    0.0000 C   0  0  0  0  0  0  0  0  0  0  0  0
  -10.8458   -1.9613    0.0000 O   0  0  0  0  0  0  0  0  0  0  0  0
   -8.2872   -1.5101    0.0000 N   0  0  0  0  0  0  0  0  0  0  0  0
   -8.5477   -0.0329    0.0000 C   0  0  0  0  0  0  0  0  0  0  0  0
   -7.3986    0.9313    0.0000 C   0  0  0  0  0  0  0  0  0  0  0  0
   -5.9891    0.4182    0.0000 O   0  0  0  0  0  0  0  0  0  0  0  0
   -7.6591    2.4085    0.0000 C   0  0  0  0  0  0  0  0  0  0  0  0
   -6.5100    3.3726    0.0000 O   0  0  0  0  0  0  0  0  0  0  0  0
   -6.7705    4.8499    0.0000 B   0  0  0  0  0  0  0  0  0  0  0  0
   -5.6214    5.8140    0.0000 O   0  0  0  0  0  0  0  0  0  0  0  0
   -8.1800    5.3629    0.0000 O   0  0  0  0  0  0  0  0  0  0  0  0
   -8.4405    6.8401    0.0000 C   0  0  0  0  0  0  0  0  0  0  0  0
   -6.8777   -2.0232    0.0000 C   0  0  0  0  0  0  0  0  0  0  0  0
   -5.7286   -1.0590    0.0000 O   0  0  0  0  0  0  0  0  0  0  0  0
   -6.6172   -3.5004    0.0000 N   0  0  0  0  0  0  0  0  0  0  0  0
   -5.2077   -4.0134    0.0000 C   0  0  0  0  0  0  0  0  0  0  0  0
   -4.0586   -3.0492    0.0000 C   0  0  0  0  0  0  0  0  0  0  0  0
   -4.3191   -1.5720    0.0000 O   0  0  0  0  0  0  0  0  0  0  0  0
   -2.6491   -3.5623    0.0000 C   0  0  0  0  0  0  0  0  0  0  0  0
   -1.5000   -2.5981    0.0000 P   0  0  0  0  0  0  0  0  0  0  0  0
   -2.6491   -1.6339    0.0000 O   0  0  0  0  0  0  0  0  0  0  0  0
   -0.7500   -3.8971    0.0000 O   0  0  0  0  0  0  0  0  0  0  0  0
    0.7500   -3.8971    0.0000 C   0  0  0  0  0  0  0  0  0  0  0  0
    1.5000   -5.1962    0.0000 C   0  0  0  0  0  0  0  0  0  0  0  0
    3.0000   -5.1962    0.0000 C   0  0  0  0  0  0  0  0  0  0  0  0
    3.7500   -3.8971    0.0000 C   0  0  0  0  0  0  0  0  0  0  0  0
    5.2500   -3.8971    0.0000 B   0  0  0  0  0  0  0  0  0  0  0  0
    6.0000   -5.1962    0.0000 O   0  0  0  0  0  0  0  0  0  0  0  0
    6.0000   -2.5981    0.0000 O   0  0  0  0  0  0  0  0  0  0  0  0
    3.0000   -2.5981    0.0000 C   0  0  0  0  0  0  0  0  0  0  0  0
    1.5000   -2.5981    0.0000 C   0  0  0  0  0  0  0  0  0  0  0  0
    0.7500   -1.2990    0.0000 C   0  0  0  0  0  0  0  0  0  0  0  0
    1.5000    0.0000    0.0000 C   0  0  0  0  0  0  0  0  0  0  0  0
    0.7500    1.2990    0.0000 C   0  0  0  0  0  0  0  0  0  0  0  0
   -0.7500    1.2990    0.0000 C   0  0  0  0  0  0  0  0  0  0  0  0
   -1.5000    0.0000    0.0000 C   0  0  0  0  0  0  0  0  0  0  0  0
   -0.7500   -1.2990    0.0000 C   0  0  0  0  0  0  0  0  0  0  0  0
   -7.7663   -4.4646    0.0000 C   0  0  0  0  0  0  0  0  0  0  0  0
   -7.5058   -5.9418    0.0000 O   0  0  0  0  0  0  0  0  0  0  0  0
  1  2  1  0
  2  3  1  0
  3  4  1  0
  3  5  1  0
  5  6  1  0
  6  7  1  0
  7  8  2  0
  7  9  1  0
  9 10  1  0
 10 11  1  0
 11 12  1  0
 11 13  1  0
 13 14  1  0
 14 15  1  0
 15 16  1  0
 15 17  1  0
 17 18  1  0
  9 19  1  0
 19 20  2  0
 19 21  1  0
 21 22  1  0
 22 23  1  0
 23 24  1  0
 23 25  1  0
 25 26  1  0
 26 27  2  0
 26 28  1  0
 28 29  1  0
 29 30  2  0
 30 31  1  0
 31 32  2  0
 32 33  1  0
 33 34  1  0
 33 35  1  0
 32 36  1  0
 36 37  2  0
 37 38  1  0
 38 39  2  0
 39 40  1  0
 40 41  2  0
 41 42  1  0
 42 43  2  0
 21 44  1  0
 44 45  2  0
 44  6  1  0
 43 26  1  0
 37 29  1  0
 43 38  1  0
M  END
>  <Candidate_ID>  (148) 
CAND_R2_148

>  <Candidate_Name>  (148) 
DTB-boronic-acid

>  <Parent_Seed_ID>  (148) 
TRAIN_018

>  <Parent_Name>  (148) 
DTB

>  <Transformation_Code>  (148) 
boronic_acid

>  <Design_Family>  (148) 
P-N-B

>  <Preparation_Type>  (148) 
Additive

>  <Synthesis_Level>  (148) 
B

>  <Parent_Tanimoto_r3>  (148) 
0.776595744680851

>  <Max_Train_Tanimoto_r3>  (148) 
0.776595744680851

>  <Risk_Flags>  (148) 
DOPO-core substitution route needs confirmation

$$$$
CAND_R2_149 | DTB-pinacol-boronate
     RDKit          2D

 51 55  0  0  0  0  0  0  0  0999 V2000
  -14.2930   -4.8538    0.0000 C   0  0  0  0  0  0  0  0  0  0  0  0
  -12.8835   -5.3669    0.0000 C   0  0  0  0  0  0  0  0  0  0  0  0
  -11.7344   -4.4027    0.0000 C   0  0  0  0  0  0  0  0  0  0  0  0
  -11.9949   -2.9255    0.0000 O   0  0  0  0  0  0  0  0  0  0  0  0
  -10.3249   -4.9157    0.0000 C   0  0  0  0  0  0  0  0  0  0  0  0
   -9.1758   -3.9515    0.0000 N   0  0  0  0  0  0  0  0  0  0  0  0
   -9.4363   -2.4743    0.0000 C   0  0  0  0  0  0  0  0  0  0  0  0
  -10.8458   -1.9613    0.0000 O   0  0  0  0  0  0  0  0  0  0  0  0
   -8.2872   -1.5101    0.0000 N   0  0  0  0  0  0  0  0  0  0  0  0
   -8.5477   -0.0329    0.0000 C   0  0  0  0  0  0  0  0  0  0  0  0
   -7.3986    0.9313    0.0000 C   0  0  0  0  0  0  0  0  0  0  0  0
   -5.9891    0.4182    0.0000 O   0  0  0  0  0  0  0  0  0  0  0  0
   -7.6591    2.4085    0.0000 C   0  0  0  0  0  0  0  0  0  0  0  0
   -6.5100    3.3726    0.0000 O   0  0  0  0  0  0  0  0  0  0  0  0
   -6.7705    4.8499    0.0000 B   0  0  0  0  0  0  0  0  0  0  0  0
   -5.6214    5.8140    0.0000 O   0  0  0  0  0  0  0  0  0  0  0  0
   -8.1800    5.3629    0.0000 O   0  0  0  0  0  0  0  0  0  0  0  0
   -8.4405    6.8401    0.0000 C   0  0  0  0  0  0  0  0  0  0  0  0
   -6.8777   -2.0232    0.0000 C   0  0  0  0  0  0  0  0  0  0  0  0
   -5.7286   -1.0590    0.0000 O   0  0  0  0  0  0  0  0  0  0  0  0
   -6.6172   -3.5004    0.0000 N   0  0  0  0  0  0  0  0  0  0  0  0
   -5.2077   -4.0134    0.0000 C   0  0  0  0  0  0  0  0  0  0  0  0
   -4.0586   -3.0492    0.0000 C   0  0  0  0  0  0  0  0  0  0  0  0
   -4.3191   -1.5720    0.0000 O   0  0  0  0  0  0  0  0  0  0  0  0
   -2.6491   -3.5623    0.0000 C   0  0  0  0  0  0  0  0  0  0  0  0
   -1.5000   -2.5981    0.0000 P   0  0  0  0  0  0  0  0  0  0  0  0
   -2.6491   -1.6339    0.0000 O   0  0  0  0  0  0  0  0  0  0  0  0
   -0.7500   -3.8971    0.0000 O   0  0  0  0  0  0  0  0  0  0  0  0
    0.7500   -3.8971    0.0000 C   0  0  0  0  0  0  0  0  0  0  0  0
    1.5000   -5.1962    0.0000 C   0  0  0  0  0  0  0  0  0  0  0  0
    3.0000   -5.1962    0.0000 C   0  0  0  0  0  0  0  0  0  0  0  0
    3.7500   -3.8971    0.0000 C   0  0  0  0  0  0  0  0  0  0  0  0
    5.2500   -3.8971    0.0000 B   0  0  0  0  0  0  0  0  0  0  0  0
    6.1317   -2.6836    0.0000 O   0  0  0  0  0  0  0  0  0  0  0  0
    7.5583   -3.1471    0.0000 C   0  0  0  0  0  0  0  0  0  0  0  0
    7.8701   -1.6799    0.0000 C   0  0  0  0  0  0  0  0  0  0  0  0
    9.0500   -3.3039    0.0000 C   0  0  0  0  0  0  0  0  0  0  0  0
    7.5583   -4.6471    0.0000 C   0  0  0  0  0  0  0  0  0  0  0  0
    9.0500   -4.4903    0.0000 C   0  0  0  0  0  0  0  0  0  0  0  0
    7.8701   -6.1143    0.0000 C   0  0  0  0  0  0  0  0  0  0  0  0
    6.1317   -5.1106    0.0000 O   0  0  0  0  0  0  0  0  0  0  0  0
    3.0000   -2.5981    0.0000 C   0  0  0  0  0  0  0  0  0  0  0  0
    1.5000   -2.5981    0.0000 C   0  0  0  0  0  0  0  0  0  0  0  0
    0.7500   -1.2990    0.0000 C   0  0  0  0  0  0  0  0  0  0  0  0
    1.5000    0.0000    0.0000 C   0  0  0  0  0  0  0  0  0  0  0  0
    0.7500    1.2990    0.0000 C   0  0  0  0  0  0  0  0  0  0  0  0
   -0.7500    1.2990    0.0000 C   0  0  0  0  0  0  0  0  0  0  0  0
   -1.5000    0.0000    0.0000 C   0  0  0  0  0  0  0  0  0  0  0  0
   -0.7500   -1.2990    0.0000 C   0  0  0  0  0  0  0  0  0  0  0  0
   -7.7663   -4.4646    0.0000 C   0  0  0  0  0  0  0  0  0  0  0  0
   -7.5058   -5.9418    0.0000 O   0  0  0  0  0  0  0  0  0  0  0  0
  1  2  1  0
  2  3  1  0
  3  4  1  0
  3  5  1  0
  5  6  1  0
  6  7  1  0
  7  8  2  0
  7  9  1  0
  9 10  1  0
 10 11  1  0
 11 12  1  0
 11 13  1  0
 13 14  1  0
 14 15  1  0
 15 16  1  0
 15 17  1  0
 17 18  1  0
  9 19  1  0
 19 20  2  0
 19 21  1  0
 21 22  1  0
 22 23  1  0
 23 24  1  0
 23 25  1  0
 25 26  1  0
 26 27  2  0
 26 28  1  0
 28 29  1  0
 29 30  2  0
 30 31  1  0
 31 32  2  0
 32 33  1  0
 33 34  1  0
 34 35  1  0
 35 36  1  0
 35 37  1  0
 35 38  1  0
 38 39  1  0
 38 40  1  0
 38 41  1  0
 32 42  1  0
 42 43  2  0
 43 44  1  0
 44 45  2  0
 45 46  1  0
 46 47  2  0
 47 48  1  0
 48 49  2  0
 21 50  1  0
 50 51  2  0
 50  6  1  0
 49 26  1  0
 43 29  1  0
 49 44  1  0
 41 33  1  0
M  END
>  <Candidate_ID>  (149) 
CAND_R2_149

>  <Candidate_Name>  (149) 
DTB-pinacol-boronate

>  <Parent_Seed_ID>  (149) 
TRAIN_018

>  <Parent_Name>  (149) 
DTB

>  <Transformation_Code>  (149) 
pinacol_boronate

>  <Design_Family>  (149) 
P-N-B

>  <Preparation_Type>  (149) 
Additive

>  <Synthesis_Level>  (149) 
B

>  <Parent_Tanimoto_r3>  (149) 
0.6886792452830188

>  <Max_Train_Tanimoto_r3>  (149) 
0.6886792452830188

>  <Risk_Flags>  (149) 
DOPO-core substitution route needs confirmation; candidate may be outside strict in-domain threshold

$$$$
CAND_R2_150 | DTB-trimethoxysilyl
     RDKit          2D

 49 52  0  0  0  0  0  0  0  0999 V2000
  -14.2930   -4.8538    0.0000 C   0  0  0  0  0  0  0  0  0  0  0  0
  -12.8835   -5.3669    0.0000 C   0  0  0  0  0  0  0  0  0  0  0  0
  -11.7344   -4.4027    0.0000 C   0  0  0  0  0  0  0  0  0  0  0  0
  -11.9949   -2.9255    0.0000 O   0  0  0  0  0  0  0  0  0  0  0  0
  -10.3249   -4.9157    0.0000 C   0  0  0  0  0  0  0  0  0  0  0  0
   -9.1758   -3.9515    0.0000 N   0  0  0  0  0  0  0  0  0  0  0  0
   -9.4363   -2.4743    0.0000 C   0  0  0  0  0  0  0  0  0  0  0  0
  -10.8458   -1.9613    0.0000 O   0  0  0  0  0  0  0  0  0  0  0  0
   -8.2872   -1.5101    0.0000 N   0  0  0  0  0  0  0  0  0  0  0  0
   -8.5477   -0.0329    0.0000 C   0  0  0  0  0  0  0  0  0  0  0  0
   -7.3986    0.9313    0.0000 C   0  0  0  0  0  0  0  0  0  0  0  0
   -5.9891    0.4182    0.0000 O   0  0  0  0  0  0  0  0  0  0  0  0
   -7.6591    2.4085    0.0000 C   0  0  0  0  0  0  0  0  0  0  0  0
   -6.5100    3.3726    0.0000 O   0  0  0  0  0  0  0  0  0  0  0  0
   -6.7705    4.8499    0.0000 B   0  0  0  0  0  0  0  0  0  0  0  0
   -5.6214    5.8140    0.0000 O   0  0  0  0  0  0  0  0  0  0  0  0
   -8.1800    5.3629    0.0000 O   0  0  0  0  0  0  0  0  0  0  0  0
   -8.4405    6.8401    0.0000 C   0  0  0  0  0  0  0  0  0  0  0  0
   -6.8777   -2.0232    0.0000 C   0  0  0  0  0  0  0  0  0  0  0  0
   -5.7286   -1.0590    0.0000 O   0  0  0  0  0  0  0  0  0  0  0  0
   -6.6172   -3.5004    0.0000 N   0  0  0  0  0  0  0  0  0  0  0  0
   -5.2077   -4.0134    0.0000 C   0  0  0  0  0  0  0  0  0  0  0  0
   -4.0586   -3.0492    0.0000 C   0  0  0  0  0  0  0  0  0  0  0  0
   -4.3191   -1.5720    0.0000 O   0  0  0  0  0  0  0  0  0  0  0  0
   -2.6491   -3.5623    0.0000 C   0  0  0  0  0  0  0  0  0  0  0  0
   -1.5000   -2.5981    0.0000 P   0  0  0  0  0  0  0  0  0  0  0  0
   -2.6491   -1.6339    0.0000 O   0  0  0  0  0  0  0  0  0  0  0  0
   -0.7500   -3.8971    0.0000 O   0  0  0  0  0  0  0  0  0  0  0  0
    0.7500   -3.8971    0.0000 C   0  0  0  0  0  0  0  0  0  0  0  0
    1.5000   -5.1962    0.0000 C   0  0  0  0  0  0  0  0  0  0  0  0
    3.0000   -5.1962    0.0000 C   0  0  0  0  0  0  0  0  0  0  0  0
    3.7500   -3.8971    0.0000 C   0  0  0  0  0  0  0  0  0  0  0  0
    5.2500   -3.8971    0.0000 Si  0  0  0  0  0  4  0  0  0  0  0  0
    6.7500   -3.8971    0.0000 O   0  0  0  0  0  0  0  0  0  0  0  0
    7.5000   -2.5981    0.0000 C   0  0  0  0  0  0  0  0  0  0  0  0
    5.2500   -5.3971    0.0000 O   0  0  0  0  0  0  0  0  0  0  0  0
    6.5490   -6.1471    0.0000 C   0  0  0  0  0  0  0  0  0  0  0  0
    5.2500   -2.3971    0.0000 O   0  0  0  0  0  0  0  0  0  0  0  0
    6.5490   -1.6471    0.0000 C   0  0  0  0  0  0  0  0  0  0  0  0
    3.0000   -2.5981    0.0000 C   0  0  0  0  0  0  0  0  0  0  0  0
    1.5000   -2.5981    0.0000 C   0  0  0  0  0  0  0  0  0  0  0  0
    0.7500   -1.2990    0.0000 C   0  0  0  0  0  0  0  0  0  0  0  0
    1.5000    0.0000    0.0000 C   0  0  0  0  0  0  0  0  0  0  0  0
    0.7500    1.2990    0.0000 C   0  0  0  0  0  0  0  0  0  0  0  0
   -0.7500    1.2990    0.0000 C   0  0  0  0  0  0  0  0  0  0  0  0
   -1.5000    0.0000    0.0000 C   0  0  0  0  0  0  0  0  0  0  0  0
   -0.7500   -1.2990    0.0000 C   0  0  0  0  0  0  0  0  0  0  0  0
   -7.7663   -4.4646    0.0000 C   0  0  0  0  0  0  0  0  0  0  0  0
   -7.5058   -5.9418    0.0000 O   0  0  0  0  0  0  0  0  0  0  0  0
  1  2  1  0
  2  3  1  0
  3  4  1  0
  3  5  1  0
  5  6  1  0
  6  7  1  0
  7  8  2  0
  7  9  1  0
  9 10  1  0
 10 11  1  0
 11 12  1  0
 11 13  1  0
 13 14  1  0
 14 15  1  0
 15 16  1  0
 15 17  1  0
 17 18  1  0
  9 19  1  0
 19 20  2  0
 19 21  1  0
 21 22  1  0
 22 23  1  0
 23 24  1  0
 23 25  1  0
 25 26  1  0
 26 27  2  0
 26 28  1  0
 28 29  1  0
 29 30  2  0
 30 31  1  0
 31 32  2  0
 32 33  1  0
 33 34  1  0
 34 35  1  0
 33 36  1  0
 36 37  1  0
 33 38  1  0
 38 39  1  0
 32 40  1  0
 40 41  2  0
 41 42  1  0
 42 43  2  0
 43 44  1  0
 44 45  2  0
 45 46  1  0
 46 47  2  0
 21 48  1  0
 48 49  2  0
 48  6  1  0
 47 26  1  0
 41 29  1  0
 47 42  1  0
M  END
>  <Candidate_ID>  (150) 
CAND_R2_150

>  <Candidate_Name>  (150) 
DTB-trimethoxysilyl

>  <Parent_Seed_ID>  (150) 
TRAIN_018

>  <Parent_Name>  (150) 
DTB

>  <Transformation_Code>  (150) 
trimethoxysilyl

>  <Design_Family>  (150) 
P-N-Si-B

>  <Preparation_Type>  (150) 
Additive + Secondary Crosslinking

>  <Synthesis_Level>  (150) 
B

>  <Parent_Tanimoto_r3>  (150) 
0.7448979591836735

>  <Max_Train_Tanimoto_r3>  (150) 
0.7448979591836735

>  <Risk_Flags>  (150) 
DOPO-core substitution route needs confirmation

$$$$
CAND_R2_151 | DTB-triethoxysilyl
     RDKit          2D

 52 55  0  0  0  0  0  0  0  0999 V2000
    9.0000   -2.5981    0.0000 C   0  0  0  0  0  0  0  0  0  0  0  0
    7.5000   -2.5981    0.0000 C   0  0  0  0  0  0  0  0  0  0  0  0
    6.7500   -3.8971    0.0000 O   0  0  0  0  0  0  0  0  0  0  0  0
    5.2500   -3.8971    0.0000 Si  0  0  0  0  0  4  0  0  0  0  0  0
    5.2500   -5.3971    0.0000 O   0  0  0  0  0  0  0  0  0  0  0  0
    6.5490   -6.1471    0.0000 C   0  0  0  0  0  0  0  0  0  0  0  0
    6.5490   -7.6471    0.0000 C   0  0  0  0  0  0  0  0  0  0  0  0
    5.2500   -2.3971    0.0000 O   0  0  0  0  0  0  0  0  0  0  0  0
    6.5490   -1.6471    0.0000 C   0  0  0  0  0  0  0  0  0  0  0  0
    6.5490   -0.1471    0.0000 C   0  0  0  0  0  0  0  0  0  0  0  0
    3.7500   -3.8971    0.0000 C   0  0  0  0  0  0  0  0  0  0  0  0
    3.0000   -5.1962    0.0000 C   0  0  0  0  0  0  0  0  0  0  0  0
    1.5000   -5.1962    0.0000 C   0  0  0  0  0  0  0  0  0  0  0  0
    0.7500   -3.8971    0.0000 C   0  0  0  0  0  0  0  0  0  0  0  0
    1.5000   -2.5981    0.0000 C   0  0  0  0  0  0  0  0  0  0  0  0
    3.0000   -2.5981    0.0000 C   0  0  0  0  0  0  0  0  0  0  0  0
    0.7500   -1.2990    0.0000 C   0  0  0  0  0  0  0  0  0  0  0  0
    1.5000    0.0000    0.0000 C   0  0  0  0  0  0  0  0  0  0  0  0
    0.7500    1.2990    0.0000 C   0  0  0  0  0  0  0  0  0  0  0  0
   -0.7500    1.2990    0.0000 C   0  0  0  0  0  0  0  0  0  0  0  0
   -1.5000    0.0000    0.0000 C   0  0  0  0  0  0  0  0  0  0  0  0
   -0.7500   -1.2990    0.0000 C   0  0  0  0  0  0  0  0  0  0  0  0
   -1.5000   -2.5981    0.0000 P   0  0  0  0  0  0  0  0  0  0  0  0
   -2.6491   -1.6339    0.0000 O   0  0  0  0  0  0  0  0  0  0  0  0
   -2.6491   -3.5623    0.0000 C   0  0  0  0  0  0  0  0  0  0  0  0
   -4.0586   -3.0492    0.0000 C   0  0  0  0  0  0  0  0  0  0  0  0
   -4.3191   -1.5720    0.0000 O   0  0  0  0  0  0  0  0  0  0  0  0
   -5.2077   -4.0134    0.0000 C   0  0  0  0  0  0  0  0  0  0  0  0
   -6.6172   -3.5004    0.0000 N   0  0  0  0  0  0  0  0  0  0  0  0
   -6.8777   -2.0232    0.0000 C   0  0  0  0  0  0  0  0  0  0  0  0
   -5.7286   -1.0590    0.0000 O   0  0  0  0  0  0  0  0  0  0  0  0
   -8.2872   -1.5101    0.0000 N   0  0  0  0  0  0  0  0  0  0  0  0
   -8.5477   -0.0329    0.0000 C   0  0  0  0  0  0  0  0  0  0  0  0
   -9.9572    0.4801    0.0000 C   0  0  0  0  0  0  0  0  0  0  0  0
  -11.1063   -0.4841    0.0000 O   0  0  0  0  0  0  0  0  0  0  0  0
  -10.2177    1.9573    0.0000 C   0  0  0  0  0  0  0  0  0  0  0  0
  -11.6272    2.4703    0.0000 C   0  0  0  0  0  0  0  0  0  0  0  0
   -9.4363   -2.4743    0.0000 C   0  0  0  0  0  0  0  0  0  0  0  0
  -10.8458   -1.9613    0.0000 O   0  0  0  0  0  0  0  0  0  0  0  0
   -9.1758   -3.9515    0.0000 N   0  0  0  0  0  0  0  0  0  0  0  0
  -10.3249   -4.9157    0.0000 C   0  0  0  0  0  0  0  0  0  0  0  0
  -10.0644   -6.3929    0.0000 C   0  0  0  0  0  0  0  0  0  0  0  0
   -8.6549   -6.9060    0.0000 O   0  0  0  0  0  0  0  0  0  0  0  0
  -11.2135   -7.3571    0.0000 C   0  0  0  0  0  0  0  0  0  0  0  0
  -10.9530   -8.8343    0.0000 O   0  0  0  0  0  0  0  0  0  0  0  0
  -12.1021   -9.7985    0.0000 B   0  0  0  0  0  0  0  0  0  0  0  0
  -11.8416  -11.2757    0.0000 O   0  0  0  0  0  0  0  0  0  0  0  0
  -13.5116   -9.2855    0.0000 O   0  0  0  0  0  0  0  0  0  0  0  0
  -14.6607  -10.2496    0.0000 C   0  0  0  0  0  0  0  0  0  0  0  0
   -7.7663   -4.4646    0.0000 C   0  0  0  0  0  0  0  0  0  0  0  0
   -7.5058   -5.9418    0.0000 O   0  0  0  0  0  0  0  0  0  0  0  0
   -0.7500   -3.8971    0.0000 O   0  0  0  0  0  0  0  0  0  0  0  0
  1  2  1  0
  2  3  1  0
  3  4  1  0
  4  5  1  0
  5  6  1  0
  6  7  1  0
  4  8  1  0
  8  9  1  0
  9 10  1  0
  4 11  1  0
 11 12  2  0
 12 13  1  0
 13 14  2  0
 14 15  1  0
 15 16  2  0
 15 17  1  0
 17 18  2  0
 18 19  1  0
 19 20  2  0
 20 21  1  0
 21 22  2  0
 22 23  1  0
 23 24  2  0
 23 25  1  0
 25 26  1  0
 26 27  1  0
 26 28  1  0
 28 29  1  0
 29 30  1  0
 30 31  2  0
 30 32  1  0
 32 33  1  0
 33 34  1  0
 34 35  1  0
 34 36  1  0
 36 37  1  0
 32 38  1  0
 38 39  2  0
 38 40  1  0
 40 41  1  0
 41 42  1  0
 42 43  1  0
 42 44  1  0
 44 45  1  0
 45 46  1  0
 46 47  1  0
 46 48  1  0
 48 49  1  0
 40 50  1  0
 50 51  2  0
 23 52  1  0
 16 11  1  0
 22 17  1  0
 50 29  1  0
 52 14  1  0
M  END
>  <Candidate_ID>  (151) 
CAND_R2_151

>  <Candidate_Name>  (151) 
DTB-triethoxysilyl

>  <Parent_Seed_ID>  (151) 
TRAIN_018

>  <Parent_Name>  (151) 
DTB

>  <Transformation_Code>  (151) 
triethoxysilyl

>  <Design_Family>  (151) 
P-N-Si-B

>  <Preparation_Type>  (151) 
Additive + Secondary Crosslinking

>  <Synthesis_Level>  (151) 
B

>  <Parent_Tanimoto_r3>  (151) 
0.7156862745098039

>  <Max_Train_Tanimoto_r3>  (151) 
0.7156862745098039

>  <Risk_Flags>  (151) 
DOPO-core substitution route needs confirmation

$$$$
CAND_R2_152 | DTB-disiloxane
     RDKit          2D

 50 53  0  0  0  0  0  0  0  0999 V2000
  -14.2930   -4.8538    0.0000 C   0  0  0  0  0  0  0  0  0  0  0  0
  -12.8835   -5.3669    0.0000 C   0  0  0  0  0  0  0  0  0  0  0  0
  -11.7344   -4.4027    0.0000 C   0  0  0  0  0  0  0  0  0  0  0  0
  -11.9949   -2.9255    0.0000 O   0  0  0  0  0  0  0  0  0  0  0  0
  -10.3249   -4.9157    0.0000 C   0  0  0  0  0  0  0  0  0  0  0  0
   -9.1758   -3.9515    0.0000 N   0  0  0  0  0  0  0  0  0  0  0  0
   -9.4363   -2.4743    0.0000 C   0  0  0  0  0  0  0  0  0  0  0  0
  -10.8458   -1.9613    0.0000 O   0  0  0  0  0  0  0  0  0  0  0  0
   -8.2872   -1.5101    0.0000 N   0  0  0  0  0  0  0  0  0  0  0  0
   -8.5477   -0.0329    0.0000 C   0  0  0  0  0  0  0  0  0  0  0  0
   -7.3986    0.9313    0.0000 C   0  0  0  0  0  0  0  0  0  0  0  0
   -5.9891    0.4182    0.0000 O   0  0  0  0  0  0  0  0  0  0  0  0
   -7.6591    2.4085    0.0000 C   0  0  0  0  0  0  0  0  0  0  0  0
   -6.5100    3.3726    0.0000 O   0  0  0  0  0  0  0  0  0  0  0  0
   -6.7705    4.8499    0.0000 B   0  0  0  0  0  0  0  0  0  0  0  0
   -5.6214    5.8140    0.0000 O   0  0  0  0  0  0  0  0  0  0  0  0
   -8.1800    5.3629    0.0000 O   0  0  0  0  0  0  0  0  0  0  0  0
   -8.4405    6.8401    0.0000 C   0  0  0  0  0  0  0  0  0  0  0  0
   -6.8777   -2.0232    0.0000 C   0  0  0  0  0  0  0  0  0  0  0  0
   -5.7286   -1.0590    0.0000 O   0  0  0  0  0  0  0  0  0  0  0  0
   -6.6172   -3.5004    0.0000 N   0  0  0  0  0  0  0  0  0  0  0  0
   -5.2077   -4.0134    0.0000 C   0  0  0  0  0  0  0  0  0  0  0  0
   -4.0586   -3.0492    0.0000 C   0  0  0  0  0  0  0  0  0  0  0  0
   -4.3191   -1.5720    0.0000 O   0  0  0  0  0  0  0  0  0  0  0  0
   -2.6491   -3.5623    0.0000 C   0  0  0  0  0  0  0  0  0  0  0  0
   -1.5000   -2.5981    0.0000 P   0  0  0  0  0  0  0  0  0  0  0  0
   -2.6491   -1.6339    0.0000 O   0  0  0  0  0  0  0  0  0  0  0  0
   -0.7500   -3.8971    0.0000 O   0  0  0  0  0  0  0  0  0  0  0  0
    0.7500   -3.8971    0.0000 C   0  0  0  0  0  0  0  0  0  0  0  0
    1.5000   -5.1962    0.0000 C   0  0  0  0  0  0  0  0  0  0  0  0
    3.0000   -5.1962    0.0000 C   0  0  0  0  0  0  0  0  0  0  0  0
    3.7500   -3.8971    0.0000 C   0  0  0  0  0  0  0  0  0  0  0  0
    5.2500   -3.8971    0.0000 Si  0  0  0  0  0  4  0  0  0  0  0  0
    5.2500   -2.3971    0.0000 C   0  0  0  0  0  0  0  0  0  0  0  0
    5.2500   -5.3971    0.0000 C   0  0  0  0  0  0  0  0  0  0  0  0
    6.7500   -3.8971    0.0000 O   0  0  0  0  0  0  0  0  0  0  0  0
    7.5000   -2.5981    0.0000 Si  0  0  0  0  0  4  0  0  0  0  0  0
    8.7990   -3.3481    0.0000 C   0  0  0  0  0  0  0  0  0  0  0  0
    6.2010   -1.8481    0.0000 C   0  0  0  0  0  0  0  0  0  0  0  0
    8.2500   -1.2990    0.0000 C   0  0  0  0  0  0  0  0  0  0  0  0
    3.0000   -2.5981    0.0000 C   0  0  0  0  0  0  0  0  0  0  0  0
    1.5000   -2.5981    0.0000 C   0  0  0  0  0  0  0  0  0  0  0  0
    0.7500   -1.2990    0.0000 C   0  0  0  0  0  0  0  0  0  0  0  0
    1.5000    0.0000    0.0000 C   0  0  0  0  0  0  0  0  0  0  0  0
    0.7500    1.2990    0.0000 C   0  0  0  0  0  0  0  0  0  0  0  0
   -0.7500    1.2990    0.0000 C   0  0  0  0  0  0  0  0  0  0  0  0
   -1.5000    0.0000    0.0000 C   0  0  0  0  0  0  0  0  0  0  0  0
   -0.7500   -1.2990    0.0000 C   0  0  0  0  0  0  0  0  0  0  0  0
   -7.7663   -4.4646    0.0000 C   0  0  0  0  0  0  0  0  0  0  0  0
   -7.5058   -5.9418    0.0000 O   0  0  0  0  0  0  0  0  0  0  0  0
  1  2  1  0
  2  3  1  0
  3  4  1  0
  3  5  1  0
  5  6  1  0
  6  7  1  0
  7  8  2  0
  7  9  1  0
  9 10  1  0
 10 11  1  0
 11 12  1  0
 11 13  1  0
 13 14  1  0
 14 15  1  0
 15 16  1  0
 15 17  1  0
 17 18  1  0
  9 19  1  0
 19 20  2  0
 19 21  1  0
 21 22  1  0
 22 23  1  0
 23 24  1  0
 23 25  1  0
 25 26  1  0
 26 27  2  0
 26 28  1  0
 28 29  1  0
 29 30  2  0
 30 31  1  0
 31 32  2  0
 32 33  1  0
 33 34  1  0
 33 35  1  0
 33 36  1  0
 36 37  1  0
 37 38  1  0
 37 39  1  0
 37 40  1  0
 32 41  1  0
 41 42  2  0
 42 43  1  0
 43 44  2  0
 44 45  1  0
 45 46  2  0
 46 47  1  0
 47 48  2  0
 21 49  1  0
 49 50  2  0
 49  6  1  0
 48 26  1  0
 42 29  1  0
 48 43  1  0
M  END
>  <Candidate_ID>  (152) 
CAND_R2_152

>  <Candidate_Name>  (152) 
DTB-disiloxane

>  <Parent_Seed_ID>  (152) 
TRAIN_018

>  <Parent_Name>  (152) 
DTB

>  <Transformation_Code>  (152) 
disiloxane

>  <Design_Family>  (152) 
P-N-Si-B

>  <Preparation_Type>  (152) 
Additive

>  <Synthesis_Level>  (152) 
B

>  <Parent_Tanimoto_r3>  (152) 
0.7156862745098039

>  <Max_Train_Tanimoto_r3>  (152) 
0.7156862745098039

>  <Risk_Flags>  (152) 
DOPO-core substitution route needs confirmation

$$$$
CAND_R2_153 | DTB-diaminotriazine
     RDKit          2D

 50 54  0  0  0  0  0  0  0  0999 V2000
  -14.2930   -4.8538    0.0000 C   0  0  0  0  0  0  0  0  0  0  0  0
  -12.8835   -5.3669    0.0000 C   0  0  0  0  0  0  0  0  0  0  0  0
  -11.7344   -4.4027    0.0000 C   0  0  0  0  0  0  0  0  0  0  0  0
  -11.9949   -2.9255    0.0000 O   0  0  0  0  0  0  0  0  0  0  0  0
  -10.3249   -4.9157    0.0000 C   0  0  0  0  0  0  0  0  0  0  0  0
   -9.1758   -3.9515    0.0000 N   0  0  0  0  0  0  0  0  0  0  0  0
   -9.4363   -2.4743    0.0000 C   0  0  0  0  0  0  0  0  0  0  0  0
  -10.8458   -1.9613    0.0000 O   0  0  0  0  0  0  0  0  0  0  0  0
   -8.2872   -1.5101    0.0000 N   0  0  0  0  0  0  0  0  0  0  0  0
   -8.5477   -0.0329    0.0000 C   0  0  0  0  0  0  0  0  0  0  0  0
   -7.3986    0.9313    0.0000 C   0  0  0  0  0  0  0  0  0  0  0  0
   -5.9891    0.4182    0.0000 O   0  0  0  0  0  0  0  0  0  0  0  0
   -7.6591    2.4085    0.0000 C   0  0  0  0  0  0  0  0  0  0  0  0
   -6.5100    3.3726    0.0000 O   0  0  0  0  0  0  0  0  0  0  0  0
   -6.7705    4.8499    0.0000 B   0  0  0  0  0  0  0  0  0  0  0  0
   -5.6214    5.8140    0.0000 O   0  0  0  0  0  0  0  0  0  0  0  0
   -8.1800    5.3629    0.0000 O   0  0  0  0  0  0  0  0  0  0  0  0
   -8.4405    6.8401    0.0000 C   0  0  0  0  0  0  0  0  0  0  0  0
   -6.8777   -2.0232    0.0000 C   0  0  0  0  0  0  0  0  0  0  0  0
   -5.7286   -1.0590    0.0000 O   0  0  0  0  0  0  0  0  0  0  0  0
   -6.6172   -3.5004    0.0000 N   0  0  0  0  0  0  0  0  0  0  0  0
   -5.2077   -4.0134    0.0000 C   0  0  0  0  0  0  0  0  0  0  0  0
   -4.0586   -3.0492    0.0000 C   0  0  0  0  0  0  0  0  0  0  0  0
   -4.3191   -1.5720    0.0000 O   0  0  0  0  0  0  0  0  0  0  0  0
   -2.6491   -3.5623    0.0000 C   0  0  0  0  0  0  0  0  0  0  0  0
   -1.5000   -2.5981    0.0000 P   0  0  0  0  0  0  0  0  0  0  0  0
   -2.6491   -1.6339    0.0000 O   0  0  0  0  0  0  0  0  0  0  0  0
   -0.7500   -3.8971    0.0000 O   0  0  0  0  0  0  0  0  0  0  0  0
    0.7500   -3.8971    0.0000 C   0  0  0  0  0  0  0  0  0  0  0  0
    1.5000   -5.1962    0.0000 C   0  0  0  0  0  0  0  0  0  0  0  0
    3.0000   -5.1962    0.0000 C   0  0  0  0  0  0  0  0  0  0  0  0
    3.7500   -3.8971    0.0000 C   0  0  0  0  0  0  0  0  0  0  0  0
    5.2500   -3.8971    0.0000 C   0  0  0  0  0  0  0  0  0  0  0  0
    6.0000   -5.1962    0.0000 N   0  0  0  0  0  0  0  0  0  0  0  0
    7.5000   -5.1962    0.0000 C   0  0  0  0  0  0  0  0  0  0  0  0
    8.2500   -6.4952    0.0000 N   0  0  0  0  0  0  0  0  0  0  0  0
    8.2500   -3.8971    0.0000 N   0  0  0  0  0  0  0  0  0  0  0  0
    7.5000   -2.5981    0.0000 C   0  0  0  0  0  0  0  0  0  0  0  0
    8.2500   -1.2990    0.0000 N   0  0  0  0  0  0  0  0  0  0  0  0
    6.0000   -2.5981    0.0000 N   0  0  0  0  0  0  0  0  0  0  0  0
    3.0000   -2.5981    0.0000 C   0  0  0  0  0  0  0  0  0  0  0  0
    1.5000   -2.5981    0.0000 C   0  0  0  0  0  0  0  0  0  0  0  0
    0.7500   -1.2990    0.0000 C   0  0  0  0  0  0  0  0  0  0  0  0
    1.5000    0.0000    0.0000 C   0  0  0  0  0  0  0  0  0  0  0  0
    0.7500    1.2990    0.0000 C   0  0  0  0  0  0  0  0  0  0  0  0
   -0.7500    1.2990    0.0000 C   0  0  0  0  0  0  0  0  0  0  0  0
   -1.5000    0.0000    0.0000 C   0  0  0  0  0  0  0  0  0  0  0  0
   -0.7500   -1.2990    0.0000 C   0  0  0  0  0  0  0  0  0  0  0  0
   -7.7663   -4.4646    0.0000 C   0  0  0  0  0  0  0  0  0  0  0  0
   -7.5058   -5.9418    0.0000 O   0  0  0  0  0  0  0  0  0  0  0  0
  1  2  1  0
  2  3  1  0
  3  4  1  0
  3  5  1  0
  5  6  1  0
  6  7  1  0
  7  8  2  0
  7  9  1  0
  9 10  1  0
 10 11  1  0
 11 12  1  0
 11 13  1  0
 13 14  1  0
 14 15  1  0
 15 16  1  0
 15 17  1  0
 17 18  1  0
  9 19  1  0
 19 20  2  0
 19 21  1  0
 21 22  1  0
 22 23  1  0
 23 24  1  0
 23 25  1  0
 25 26  1  0
 26 27  2  0
 26 28  1  0
 28 29  1  0
 29 30  2  0
 30 31  1  0
 31 32  2  0
 32 33  1  0
 33 34  2  0
 34 35  1  0
 35 36  1  0
 35 37  2  0
 37 38  1  0
 38 39  1  0
 38 40  2  0
 32 41  1  0
 41 42  2  0
 42 43  1  0
 43 44  2  0
 44 45  1  0
 45 46  2  0
 46 47  1  0
 47 48  2  0
 21 49  1  0
 49 50  2  0
 49  6  1  0
 48 26  1  0
 42 29  1  0
 48 43  1  0
 40 33  1  0
M  END
>  <Candidate_ID>  (153) 
CAND_R2_153

>  <Candidate_Name>  (153) 
DTB-diaminotriazine

>  <Parent_Seed_ID>  (153) 
TRAIN_018

>  <Parent_Name>  (153) 
DTB

>  <Transformation_Code>  (153) 
diaminotriazine

>  <Design_Family>  (153) 
P-N-B

>  <Preparation_Type>  (153) 
Co-curing

>  <Synthesis_Level>  (153) 
B

>  <Parent_Tanimoto_r3>  (153) 
0.6822429906542056

>  <Max_Train_Tanimoto_r3>  (153) 
0.6822429906542056

>  <Risk_Flags>  (153) 
DOPO-core substitution route needs confirmation; candidate may be outside strict in-domain threshold

$$$$
CAND_R2_154 | DTB-piperazine
     RDKit          2D

 48 52  0  0  0  0  0  0  0  0999 V2000
  -14.2930   -4.8538    0.0000 C   0  0  0  0  0  0  0  0  0  0  0  0
  -12.8835   -5.3669    0.0000 C   0  0  0  0  0  0  0  0  0  0  0  0
  -11.7344   -4.4027    0.0000 C   0  0  0  0  0  0  0  0  0  0  0  0
  -11.9949   -2.9255    0.0000 O   0  0  0  0  0  0  0  0  0  0  0  0
  -10.3249   -4.9157    0.0000 C   0  0  0  0  0  0  0  0  0  0  0  0
   -9.1758   -3.9515    0.0000 N   0  0  0  0  0  0  0  0  0  0  0  0
   -9.4363   -2.4743    0.0000 C   0  0  0  0  0  0  0  0  0  0  0  0
  -10.8458   -1.9613    0.0000 O   0  0  0  0  0  0  0  0  0  0  0  0
   -8.2872   -1.5101    0.0000 N   0  0  0  0  0  0  0  0  0  0  0  0
   -8.5477   -0.0329    0.0000 C   0  0  0  0  0  0  0  0  0  0  0  0
   -7.3986    0.9313    0.0000 C   0  0  0  0  0  0  0  0  0  0  0  0
   -5.9891    0.4182    0.0000 O   0  0  0  0  0  0  0  0  0  0  0  0
   -7.6591    2.4085    0.0000 C   0  0  0  0  0  0  0  0  0  0  0  0
   -6.5100    3.3726    0.0000 O   0  0  0  0  0  0  0  0  0  0  0  0
   -6.7705    4.8499    0.0000 B   0  0  0  0  0  0  0  0  0  0  0  0
   -5.6214    5.8140    0.0000 O   0  0  0  0  0  0  0  0  0  0  0  0
   -8.1800    5.3629    0.0000 O   0  0  0  0  0  0  0  0  0  0  0  0
   -8.4405    6.8401    0.0000 C   0  0  0  0  0  0  0  0  0  0  0  0
   -6.8777   -2.0232    0.0000 C   0  0  0  0  0  0  0  0  0  0  0  0
   -5.7286   -1.0590    0.0000 O   0  0  0  0  0  0  0  0  0  0  0  0
   -6.6172   -3.5004    0.0000 N   0  0  0  0  0  0  0  0  0  0  0  0
   -5.2077   -4.0134    0.0000 C   0  0  0  0  0  0  0  0  0  0  0  0
   -4.0586   -3.0492    0.0000 C   0  0  0  0  0  0  0  0  0  0  0  0
   -4.3191   -1.5720    0.0000 O   0  0  0  0  0  0  0  0  0  0  0  0
   -2.6491   -3.5623    0.0000 C   0  0  0  0  0  0  0  0  0  0  0  0
   -1.5000   -2.5981    0.0000 P   0  0  0  0  0  0  0  0  0  0  0  0
   -2.6491   -1.6339    0.0000 O   0  0  0  0  0  0  0  0  0  0  0  0
   -0.7500   -3.8971    0.0000 O   0  0  0  0  0  0  0  0  0  0  0  0
    0.7500   -3.8971    0.0000 C   0  0  0  0  0  0  0  0  0  0  0  0
    1.5000   -5.1962    0.0000 C   0  0  0  0  0  0  0  0  0  0  0  0
    3.0000   -5.1962    0.0000 C   0  0  0  0  0  0  0  0  0  0  0  0
    3.7500   -3.8971    0.0000 C   0  0  0  0  0  0  0  0  0  0  0  0
    5.2500   -3.8971    0.0000 N   0  0  0  0  0  0  0  0  0  0  0  0
    6.0000   -5.1962    0.0000 C   0  0  0  0  0  0  0  0  0  0  0  0
    7.5000   -5.1962    0.0000 C   0  0  0  0  0  0  0  0  0  0  0  0
    8.2500   -3.8971    0.0000 N   0  0  0  0  0  0  0  0  0  0  0  0
    7.5000   -2.5981    0.0000 C   0  0  0  0  0  0  0  0  0  0  0  0
    6.0000   -2.5981    0.0000 C   0  0  0  0  0  0  0  0  0  0  0  0
    3.0000   -2.5981    0.0000 C   0  0  0  0  0  0  0  0  0  0  0  0
    1.5000   -2.5981    0.0000 C   0  0  0  0  0  0  0  0  0  0  0  0
    0.7500   -1.2990    0.0000 C   0  0  0  0  0  0  0  0  0  0  0  0
    1.5000    0.0000    0.0000 C   0  0  0  0  0  0  0  0  0  0  0  0
    0.7500    1.2990    0.0000 C   0  0  0  0  0  0  0  0  0  0  0  0
   -0.7500    1.2990    0.0000 C   0  0  0  0  0  0  0  0  0  0  0  0
   -1.5000    0.0000    0.0000 C   0  0  0  0  0  0  0  0  0  0  0  0
   -0.7500   -1.2990    0.0000 C   0  0  0  0  0  0  0  0  0  0  0  0
   -7.7663   -4.4646    0.0000 C   0  0  0  0  0  0  0  0  0  0  0  0
   -7.5058   -5.9418    0.0000 O   0  0  0  0  0  0  0  0  0  0  0  0
  1  2  1  0
  2  3  1  0
  3  4  1  0
  3  5  1  0
  5  6  1  0
  6  7  1  0
  7  8  2  0
  7  9  1  0
  9 10  1  0
 10 11  1  0
 11 12  1  0
 11 13  1  0
 13 14  1  0
 14 15  1  0
 15 16  1  0
 15 17  1  0
 17 18  1  0
  9 19  1  0
 19 20  2  0
 19 21  1  0
 21 22  1  0
 22 23  1  0
 23 24  1  0
 23 25  1  0
 25 26  1  0
 26 27  2  0
 26 28  1  0
 28 29  1  0
 29 30  2  0
 30 31  1  0
 31 32  2  0
 32 33  1  0
 33 34  1  0
 34 35  1  0
 35 36  1  0
 36 37  1  0
 37 38  1  0
 32 39  1  0
 39 40  2  0
 40 41  1  0
 41 42  2  0
 42 43  1  0
 43 44  2  0
 44 45  1  0
 45 46  2  0
 21 47  1  0
 47 48  2  0
 47  6  1  0
 46 26  1  0
 40 29  1  0
 46 41  1  0
 38 33  1  0
M  END
>  <Candidate_ID>  (154) 
CAND_R2_154

>  <Candidate_Name>  (154) 
DTB-piperazine

>  <Parent_Seed_ID>  (154) 
TRAIN_018

>  <Parent_Name>  (154) 
DTB

>  <Transformation_Code>  (154) 
piperazine

>  <Design_Family>  (154) 
P-N-B

>  <Preparation_Type>  (154) 
Co-curing

>  <Synthesis_Level>  (154) 
B

>  <Parent_Tanimoto_r3>  (154) 
0.6886792452830188

>  <Max_Train_Tanimoto_r3>  (154) 
0.6886792452830188

>  <Risk_Flags>  (154) 
DOPO-core substitution route needs confirmation; candidate may be outside strict in-domain threshold

$$$$
CAND_R2_155 | DTB-benzamide-linker
     RDKit          2D

 51 55  0  0  0  0  0  0  0  0999 V2000
  -14.2930   -4.8538    0.0000 C   0  0  0  0  0  0  0  0  0  0  0  0
  -12.8835   -5.3669    0.0000 C   0  0  0  0  0  0  0  0  0  0  0  0
  -11.7344   -4.4027    0.0000 C   0  0  0  0  0  0  0  0  0  0  0  0
  -11.9949   -2.9255    0.0000 O   0  0  0  0  0  0  0  0  0  0  0  0
  -10.3249   -4.9157    0.0000 C   0  0  0  0  0  0  0  0  0  0  0  0
   -9.1758   -3.9515    0.0000 N   0  0  0  0  0  0  0  0  0  0  0  0
   -9.4363   -2.4743    0.0000 C   0  0  0  0  0  0  0  0  0  0  0  0
  -10.8458   -1.9613    0.0000 O   0  0  0  0  0  0  0  0  0  0  0  0
   -8.2872   -1.5101    0.0000 N   0  0  0  0  0  0  0  0  0  0  0  0
   -8.5477   -0.0329    0.0000 C   0  0  0  0  0  0  0  0  0  0  0  0
   -7.3986    0.9313    0.0000 C   0  0  0  0  0  0  0  0  0  0  0  0
   -5.9891    0.4182    0.0000 O   0  0  0  0  0  0  0  0  0  0  0  0
   -7.6591    2.4085    0.0000 C   0  0  0  0  0  0  0  0  0  0  0  0
   -6.5100    3.3726    0.0000 O   0  0  0  0  0  0  0  0  0  0  0  0
   -6.7705    4.8499    0.0000 B   0  0  0  0  0  0  0  0  0  0  0  0
   -5.6214    5.8140    0.0000 O   0  0  0  0  0  0  0  0  0  0  0  0
   -8.1800    5.3629    0.0000 O   0  0  0  0  0  0  0  0  0  0  0  0
   -8.4405    6.8401    0.0000 C   0  0  0  0  0  0  0  0  0  0  0  0
   -6.8777   -2.0232    0.0000 C   0  0  0  0  0  0  0  0  0  0  0  0
   -5.7286   -1.0590    0.0000 O   0  0  0  0  0  0  0  0  0  0  0  0
   -6.6172   -3.5004    0.0000 N   0  0  0  0  0  0  0  0  0  0  0  0
   -5.2077   -4.0134    0.0000 C   0  0  0  0  0  0  0  0  0  0  0  0
   -4.0586   -3.0492    0.0000 C   0  0  0  0  0  0  0  0  0  0  0  0
   -4.3191   -1.5720    0.0000 O   0  0  0  0  0  0  0  0  0  0  0  0
   -2.6491   -3.5623    0.0000 C   0  0  0  0  0  0  0  0  0  0  0  0
   -1.5000   -2.5981    0.0000 P   0  0  0  0  0  0  0  0  0  0  0  0
   -2.6491   -1.6339    0.0000 O   0  0  0  0  0  0  0  0  0  0  0  0
   -0.7500   -3.8971    0.0000 O   0  0  0  0  0  0  0  0  0  0  0  0
    0.7500   -3.8971    0.0000 C   0  0  0  0  0  0  0  0  0  0  0  0
    1.5000   -5.1962    0.0000 C   0  0  0  0  0  0  0  0  0  0  0  0
    3.0000   -5.1962    0.0000 C   0  0  0  0  0  0  0  0  0  0  0  0
    3.7500   -3.8971    0.0000 C   0  0  0  0  0  0  0  0  0  0  0  0
    5.2500   -3.8971    0.0000 N   0  0  0  0  0  0  0  0  0  0  0  0
    6.0000   -5.1962    0.0000 C   0  0  0  0  0  0  0  0  0  0  0  0
    5.2500   -6.4952    0.0000 O   0  0  0  0  0  0  0  0  0  0  0  0
    7.5000   -5.1962    0.0000 C   0  0  0  0  0  0  0  0  0  0  0  0
    8.2500   -6.4952    0.0000 C   0  0  0  0  0  0  0  0  0  0  0  0
    9.7500   -6.4952    0.0000 C   0  0  0  0  0  0  0  0  0  0  0  0
   10.5000   -5.1962    0.0000 C   0  0  0  0  0  0  0  0  0  0  0  0
    9.7500   -3.8971    0.0000 C   0  0  0  0  0  0  0  0  0  0  0  0
    8.2500   -3.8971    0.0000 C   0  0  0  0  0  0  0  0  0  0  0  0
    3.0000   -2.5981    0.0000 C   0  0  0  0  0  0  0  0  0  0  0  0
    1.5000   -2.5981    0.0000 C   0  0  0  0  0  0  0  0  0  0  0  0
    0.7500   -1.2990    0.0000 C   0  0  0  0  0  0  0  0  0  0  0  0
    1.5000    0.0000    0.0000 C   0  0  0  0  0  0  0  0  0  0  0  0
    0.7500    1.2990    0.0000 C   0  0  0  0  0  0  0  0  0  0  0  0
   -0.7500    1.2990    0.0000 C   0  0  0  0  0  0  0  0  0  0  0  0
   -1.5000    0.0000    0.0000 C   0  0  0  0  0  0  0  0  0  0  0  0
   -0.7500   -1.2990    0.0000 C   0  0  0  0  0  0  0  0  0  0  0  0
   -7.7663   -4.4646    0.0000 C   0  0  0  0  0  0  0  0  0  0  0  0
   -7.5058   -5.9418    0.0000 O   0  0  0  0  0  0  0  0  0  0  0  0
  1  2  1  0
  2  3  1  0
  3  4  1  0
  3  5  1  0
  5  6  1  0
  6  7  1  0
  7  8  2  0
  7  9  1  0
  9 10  1  0
 10 11  1  0
 11 12  1  0
 11 13  1  0
 13 14  1  0
 14 15  1  0
 15 16  1  0
 15 17  1  0
 17 18  1  0
  9 19  1  0
 19 20  2  0
 19 21  1  0
 21 22  1  0
 22 23  1  0
 23 24  1  0
 23 25  1  0
 25 26  1  0
 26 27  2  0
 26 28  1  0
 28 29  1  0
 29 30  2  0
 30 31  1  0
 31 32  2  0
 32 33  1  0
 33 34  1  0
 34 35  2  0
 34 36  1  0
 36 37  2  0
 37 38  1  0
 38 39  2  0
 39 40  1  0
 40 41  2  0
 32 42  1  0
 42 43  2  0
 43 44  1  0
 44 45  2  0
 45 46  1  0
 46 47  2  0
 47 48  1  0
 48 49  2  0
 21 50  1  0
 50 51  2  0
 50  6  1  0
 49 26  1  0
 43 29  1  0
 49 44  1  0
 41 36  1  0
M  END
>  <Candidate_ID>  (155) 
CAND_R2_155

>  <Candidate_Name>  (155) 
DTB-benzamide-linker

>  <Parent_Seed_ID>  (155) 
TRAIN_018

>  <Parent_Name>  (155) 
DTB

>  <Transformation_Code>  (155) 
benzamide_linker

>  <Design_Family>  (155) 
P-N-B

>  <Preparation_Type>  (155) 
Additive

>  <Synthesis_Level>  (155) 
B

>  <Parent_Tanimoto_r3>  (155) 
0.6636363636363637

>  <Max_Train_Tanimoto_r3>  (155) 
0.6636363636363637

>  <Risk_Flags>  (155) 
DOPO-core substitution route needs confirmation; candidate may be outside strict in-domain threshold

$$$$
CAND_R2_156 | DTB-phenyl
     RDKit          2D

 48 52  0  0  0  0  0  0  0  0999 V2000
  -14.2930   -4.8538    0.0000 C   0  0  0  0  0  0  0  0  0  0  0  0
  -12.8835   -5.3669    0.0000 C   0  0  0  0  0  0  0  0  0  0  0  0
  -11.7344   -4.4027    0.0000 C   0  0  0  0  0  0  0  0  0  0  0  0
  -11.9949   -2.9255    0.0000 O   0  0  0  0  0  0  0  0  0  0  0  0
  -10.3249   -4.9157    0.0000 C   0  0  0  0  0  0  0  0  0  0  0  0
   -9.1758   -3.9515    0.0000 N   0  0  0  0  0  0  0  0  0  0  0  0
   -9.4363   -2.4743    0.0000 C   0  0  0  0  0  0  0  0  0  0  0  0
  -10.8458   -1.9613    0.0000 O   0  0  0  0  0  0  0  0  0  0  0  0
   -8.2872   -1.5101    0.0000 N   0  0  0  0  0  0  0  0  0  0  0  0
   -8.5477   -0.0329    0.0000 C   0  0  0  0  0  0  0  0  0  0  0  0
   -7.3986    0.9313    0.0000 C   0  0  0  0  0  0  0  0  0  0  0  0
   -5.9891    0.4182    0.0000 O   0  0  0  0  0  0  0  0  0  0  0  0
   -7.6591    2.4085    0.0000 C   0  0  0  0  0  0  0  0  0  0  0  0
   -6.5100    3.3726    0.0000 O   0  0  0  0  0  0  0  0  0  0  0  0
   -6.7705    4.8499    0.0000 B   0  0  0  0  0  0  0  0  0  0  0  0
   -5.6214    5.8140    0.0000 O   0  0  0  0  0  0  0  0  0  0  0  0
   -8.1800    5.3629    0.0000 O   0  0  0  0  0  0  0  0  0  0  0  0
   -8.4405    6.8401    0.0000 C   0  0  0  0  0  0  0  0  0  0  0  0
   -6.8777   -2.0232    0.0000 C   0  0  0  0  0  0  0  0  0  0  0  0
   -5.7286   -1.0590    0.0000 O   0  0  0  0  0  0  0  0  0  0  0  0
   -6.6172   -3.5004    0.0000 N   0  0  0  0  0  0  0  0  0  0  0  0
   -5.2077   -4.0134    0.0000 C   0  0  0  0  0  0  0  0  0  0  0  0
   -4.0586   -3.0492    0.0000 C   0  0  0  0  0  0  0  0  0  0  0  0
   -4.3191   -1.5720    0.0000 O   0  0  0  0  0  0  0  0  0  0  0  0
   -2.6491   -3.5623    0.0000 C   0  0  0  0  0  0  0  0  0  0  0  0
   -1.5000   -2.5981    0.0000 P   0  0  0  0  0  0  0  0  0  0  0  0
   -2.6491   -1.6339    0.0000 O   0  0  0  0  0  0  0  0  0  0  0  0
   -0.7500   -3.8971    0.0000 O   0  0  0  0  0  0  0  0  0  0  0  0
    0.7500   -3.8971    0.0000 C   0  0  0  0  0  0  0  0  0  0  0  0
    1.5000   -5.1962    0.0000 C   0  0  0  0  0  0  0  0  0  0  0  0
    3.0000   -5.1962    0.0000 C   0  0  0  0  0  0  0  0  0  0  0  0
    3.7500   -3.8971    0.0000 C   0  0  0  0  0  0  0  0  0  0  0  0
    5.2500   -3.8971    0.0000 C   0  0  0  0  0  0  0  0  0  0  0  0
    6.0000   -5.1962    0.0000 C   0  0  0  0  0  0  0  0  0  0  0  0
    7.5000   -5.1962    0.0000 C   0  0  0  0  0  0  0  0  0  0  0  0
    8.2500   -3.8971    0.0000 C   0  0  0  0  0  0  0  0  0  0  0  0
    7.5000   -2.5981    0.0000 C   0  0  0  0  0  0  0  0  0  0  0  0
    6.0000   -2.5981    0.0000 C   0  0  0  0  0  0  0  0  0  0  0  0
    3.0000   -2.5981    0.0000 C   0  0  0  0  0  0  0  0  0  0  0  0
    1.5000   -2.5981    0.0000 C   0  0  0  0  0  0  0  0  0  0  0  0
    0.7500   -1.2990    0.0000 C   0  0  0  0  0  0  0  0  0  0  0  0
    1.5000    0.0000    0.0000 C   0  0  0  0  0  0  0  0  0  0  0  0
    0.7500    1.2990    0.0000 C   0  0  0  0  0  0  0  0  0  0  0  0
   -0.7500    1.2990    0.0000 C   0  0  0  0  0  0  0  0  0  0  0  0
   -1.5000    0.0000    0.0000 C   0  0  0  0  0  0  0  0  0  0  0  0
   -0.7500   -1.2990    0.0000 C   0  0  0  0  0  0  0  0  0  0  0  0
   -7.7663   -4.4646    0.0000 C   0  0  0  0  0  0  0  0  0  0  0  0
   -7.5058   -5.9418    0.0000 O   0  0  0  0  0  0  0  0  0  0  0  0
  1  2  1  0
  2  3  1  0
  3  4  1  0
  3  5  1  0
  5  6  1  0
  6  7  1  0
  7  8  2  0
  7  9  1  0
  9 10  1  0
 10 11  1  0
 11 12  1  0
 11 13  1  0
 13 14  1  0
 14 15  1  0
 15 16  1  0
 15 17  1  0
 17 18  1  0
  9 19  1  0
 19 20  2  0
 19 21  1  0
 21 22  1  0
 22 23  1  0
 23 24  1  0
 23 25  1  0
 25 26  1  0
 26 27  2  0
 26 28  1  0
 28 29  1  0
 29 30  2  0
 30 31  1  0
 31 32  2  0
 32 33  1  0
 33 34  2  0
 34 35  1  0
 35 36  2  0
 36 37  1  0
 37 38  2  0
 32 39  1  0
 39 40  2  0
 40 41  1  0
 41 42  2  0
 42 43  1  0
 43 44  2  0
 44 45  1  0
 45 46  2  0
 21 47  1  0
 47 48  2  0
 47  6  1  0
 46 26  1  0
 40 29  1  0
 46 41  1  0
 38 33  1  0
M  END
>  <Candidate_ID>  (156) 
CAND_R2_156

>  <Candidate_Name>  (156) 
DTB-phenyl

>  <Parent_Seed_ID>  (156) 
TRAIN_018

>  <Parent_Name>  (156) 
DTB

>  <Transformation_Code>  (156) 
phenyl

>  <Design_Family>  (156) 
P-N-B

>  <Preparation_Type>  (156) 
Additive

>  <Synthesis_Level>  (156) 
B

>  <Parent_Tanimoto_r3>  (156) 
0.7227722772277227

>  <Max_Train_Tanimoto_r3>  (156) 
0.7227722772277227

>  <Risk_Flags>  (156) 
DOPO-core substitution route needs confirmation

$$$$
CAND_R2_157 | DTB-biphenyl
     RDKit          2D

 54 59  0  0  0  0  0  0  0  0999 V2000
  -14.2930   -4.8538    0.0000 C   0  0  0  0  0  0  0  0  0  0  0  0
  -12.8835   -5.3669    0.0000 C   0  0  0  0  0  0  0  0  0  0  0  0
  -11.7344   -4.4027    0.0000 C   0  0  0  0  0  0  0  0  0  0  0  0
  -11.9949   -2.9255    0.0000 O   0  0  0  0  0  0  0  0  0  0  0  0
  -10.3249   -4.9157    0.0000 C   0  0  0  0  0  0  0  0  0  0  0  0
   -9.1758   -3.9515    0.0000 N   0  0  0  0  0  0  0  0  0  0  0  0
   -9.4363   -2.4743    0.0000 C   0  0  0  0  0  0  0  0  0  0  0  0
  -10.8458   -1.9613    0.0000 O   0  0  0  0  0  0  0  0  0  0  0  0
   -8.2872   -1.5101    0.0000 N   0  0  0  0  0  0  0  0  0  0  0  0
   -8.5477   -0.0329    0.0000 C   0  0  0  0  0  0  0  0  0  0  0  0
   -7.3986    0.9313    0.0000 C   0  0  0  0  0  0  0  0  0  0  0  0
   -5.9891    0.4182    0.0000 O   0  0  0  0  0  0  0  0  0  0  0  0
   -7.6591    2.4085    0.0000 C   0  0  0  0  0  0  0  0  0  0  0  0
   -6.5100    3.3726    0.0000 O   0  0  0  0  0  0  0  0  0  0  0  0
   -6.7705    4.8499    0.0000 B   0  0  0  0  0  0  0  0  0  0  0  0
   -5.6214    5.8140    0.0000 O   0  0  0  0  0  0  0  0  0  0  0  0
   -8.1800    5.3629    0.0000 O   0  0  0  0  0  0  0  0  0  0  0  0
   -8.4405    6.8401    0.0000 C   0  0  0  0  0  0  0  0  0  0  0  0
   -6.8777   -2.0232    0.0000 C   0  0  0  0  0  0  0  0  0  0  0  0
   -5.7286   -1.0590    0.0000 O   0  0  0  0  0  0  0  0  0  0  0  0
   -6.6172   -3.5004    0.0000 N   0  0  0  0  0  0  0  0  0  0  0  0
   -5.2077   -4.0134    0.0000 C   0  0  0  0  0  0  0  0  0  0  0  0
   -4.0586   -3.0492    0.0000 C   0  0  0  0  0  0  0  0  0  0  0  0
   -4.3191   -1.5720    0.0000 O   0  0  0  0  0  0  0  0  0  0  0  0
   -2.6491   -3.5623    0.0000 C   0  0  0  0  0  0  0  0  0  0  0  0
   -1.5000   -2.5981    0.0000 P   0  0  0  0  0  0  0  0  0  0  0  0
   -2.6491   -1.6339    0.0000 O   0  0  0  0  0  0  0  0  0  0  0  0
   -0.7500   -3.8971    0.0000 O   0  0  0  0  0  0  0  0  0  0  0  0
    0.7500   -3.8971    0.0000 C   0  0  0  0  0  0  0  0  0  0  0  0
    1.5000   -5.1962    0.0000 C   0  0  0  0  0  0  0  0  0  0  0  0
    3.0000   -5.1962    0.0000 C   0  0  0  0  0  0  0  0  0  0  0  0
    3.7500   -3.8971    0.0000 C   0  0  0  0  0  0  0  0  0  0  0  0
    5.2500   -3.8971    0.0000 C   0  0  0  0  0  0  0  0  0  0  0  0
    6.0000   -5.1962    0.0000 C   0  0  0  0  0  0  0  0  0  0  0  0
    7.5000   -5.1962    0.0000 C   0  0  0  0  0  0  0  0  0  0  0  0
    8.2500   -3.8971    0.0000 C   0  0  0  0  0  0  0  0  0  0  0  0
    9.7500   -3.8971    0.0000 C   0  0  0  0  0  0  0  0  0  0  0  0
   10.5000   -5.1962    0.0000 C   0  0  0  0  0  0  0  0  0  0  0  0
   12.0000   -5.1962    0.0000 C   0  0  0  0  0  0  0  0  0  0  0  0
   12.7500   -3.8971    0.0000 C   0  0  0  0  0  0  0  0  0  0  0  0
   12.0000   -2.5981    0.0000 C   0  0  0  0  0  0  0  0  0  0  0  0
   10.5000   -2.5981    0.0000 C   0  0  0  0  0  0  0  0  0  0  0  0
    7.5000   -2.5981    0.0000 C   0  0  0  0  0  0  0  0  0  0  0  0
    6.0000   -2.5981    0.0000 C   0  0  0  0  0  0  0  0  0  0  0  0
    3.0000   -2.5981    0.0000 C   0  0  0  0  0  0  0  0  0  0  0  0
    1.5000   -2.5981    0.0000 C   0  0  0  0  0  0  0  0  0  0  0  0
    0.7500   -1.2990    0.0000 C   0  0  0  0  0  0  0  0  0  0  0  0
    1.5000    0.0000    0.0000 C   0  0  0  0  0  0  0  0  0  0  0  0
    0.7500    1.2990    0.0000 C   0  0  0  0  0  0  0  0  0  0  0  0
   -0.7500    1.2990    0.0000 C   0  0  0  0  0  0  0  0  0  0  0  0
   -1.5000    0.0000    0.0000 C   0  0  0  0  0  0  0  0  0  0  0  0
   -0.7500   -1.2990    0.0000 C   0  0  0  0  0  0  0  0  0  0  0  0
   -7.7663   -4.4646    0.0000 C   0  0  0  0  0  0  0  0  0  0  0  0
   -7.5058   -5.9418    0.0000 O   0  0  0  0  0  0  0  0  0  0  0  0
  1  2  1  0
  2  3  1  0
  3  4  1  0
  3  5  1  0
  5  6  1  0
  6  7  1  0
  7  8  2  0
  7  9  1  0
  9 10  1  0
 10 11  1  0
 11 12  1  0
 11 13  1  0
 13 14  1  0
 14 15  1  0
 15 16  1  0
 15 17  1  0
 17 18  1  0
  9 19  1  0
 19 20  2  0
 19 21  1  0
 21 22  1  0
 22 23  1  0
 23 24  1  0
 23 25  1  0
 25 26  1  0
 26 27  2  0
 26 28  1  0
 28 29  1  0
 29 30  2  0
 30 31  1  0
 31 32  2  0
 32 33  1  0
 33 34  2  0
 34 35  1  0
 35 36  2  0
 36 37  1  0
 37 38  2  0
 38 39  1  0
 39 40  2  0
 40 41  1  0
 41 42  2  0
 36 43  1  0
 43 44  2  0
 32 45  1  0
 45 46  2  0
 46 47  1  0
 47 48  2  0
 48 49  1  0
 49 50  2  0
 50 51  1  0
 51 52  2  0
 21 53  1  0
 53 54  2  0
 53  6  1  0
 52 26  1  0
 46 29  1  0
 52 47  1  0
 44 33  1  0
 42 37  1  0
M  END
>  <Candidate_ID>  (157) 
CAND_R2_157

>  <Candidate_Name>  (157) 
DTB-biphenyl

>  <Parent_Seed_ID>  (157) 
TRAIN_018

>  <Parent_Name>  (157) 
DTB

>  <Transformation_Code>  (157) 
biphenyl

>  <Design_Family>  (157) 
P-N-B

>  <Preparation_Type>  (157) 
Additive

>  <Synthesis_Level>  (157) 
B

>  <Parent_Tanimoto_r3>  (157) 
0.7087378640776699

>  <Max_Train_Tanimoto_r3>  (157) 
0.7087378640776699

>  <Risk_Flags>  (157) 
DOPO-core substitution route needs confirmation

$$$$
CAND_R2_158 | DTB-OH-glycidyl
     RDKit          2D

 46 50  0  0  0  0  0  0  0  0999 V2000
   -1.9158  -11.2213    0.0000 C   0  0  0  0  0  0  0  0  0  0  0  0
   -0.5062  -11.7343    0.0000 C   0  0  0  0  0  0  0  0  0  0  0  0
    0.6428  -10.7701    0.0000 C   0  0  0  0  0  0  0  0  0  0  0  0
    2.0524  -11.2832    0.0000 C   0  0  0  0  0  0  0  0  0  0  0  0
    3.2014  -10.3190    0.0000 N   0  0  0  0  0  0  0  0  0  0  0  0
    4.6110  -10.8320    0.0000 C   0  0  0  0  0  0  0  0  0  0  0  0
    4.8714  -12.3092    0.0000 O   0  0  0  0  0  0  0  0  0  0  0  0
    5.7600   -9.8678    0.0000 N   0  0  0  0  0  0  0  0  0  0  0  0
    7.1696  -10.3809    0.0000 C   0  0  0  0  0  0  0  0  0  0  0  0
    8.3186   -9.4167    0.0000 C   0  0  0  0  0  0  0  0  0  0  0  0
    8.0582   -7.9395    0.0000 O   0  0  0  0  0  0  0  0  0  0  0  0
    9.7282   -9.9297    0.0000 C   0  0  0  0  0  0  0  0  0  0  0  0
   10.8772   -8.9655    0.0000 O   0  0  0  0  0  0  0  0  0  0  0  0
   12.2868   -9.4786    0.0000 B   0  0  0  0  0  0  0  0  0  0  0  0
   13.4359   -8.5144    0.0000 O   0  0  0  0  0  0  0  0  0  0  0  0
   12.5473  -10.9558    0.0000 O   0  0  0  0  0  0  0  0  0  0  0  0
   13.9568  -11.4688    0.0000 C   0  0  0  0  0  0  0  0  0  0  0  0
    5.4996   -8.3906    0.0000 C   0  0  0  0  0  0  0  0  0  0  0  0
    6.6486   -7.4264    0.0000 O   0  0  0  0  0  0  0  0  0  0  0  0
    4.0900   -7.8776    0.0000 N   0  0  0  0  0  0  0  0  0  0  0  0
    3.8296   -6.4004    0.0000 C   0  0  0  0  0  0  0  0  0  0  0  0
    2.4200   -5.8874    0.0000 C   0  0  0  0  0  0  0  0  0  0  0  0
    1.2709   -6.8515    0.0000 O   0  0  0  0  0  0  0  0  0  0  0  0
    2.1595   -4.4101    0.0000 C   0  0  0  0  0  0  0  0  0  0  0  0
    0.7500   -3.8971    0.0000 P   0  0  0  0  0  0  0  0  0  0  0  0
    0.4895   -5.3743    0.0000 O   0  0  0  0  0  0  0  0  0  0  0  0
    1.5000   -2.5981    0.0000 O   0  0  0  0  0  0  0  0  0  0  0  0
    0.7500   -1.2990    0.0000 C   0  0  0  0  0  0  0  0  0  0  0  0
    1.5000    0.0000    0.0000 C   0  0  0  0  0  0  0  0  0  0  0  0
    0.7500    1.2990    0.0000 C   0  0  0  0  0  0  0  0  0  0  0  0
   -0.7500    1.2990    0.0000 C   0  0  0  0  0  0  0  0  0  0  0  0
   -1.5000    0.0000    0.0000 C   0  0  0  0  0  0  0  0  0  0  0  0
   -0.7500   -1.2990    0.0000 C   0  0  0  0  0  0  0  0  0  0  0  0
   -1.5000   -2.5981    0.0000 C   0  0  0  0  0  0  0  0  0  0  0  0
   -3.0000   -2.5981    0.0000 C   0  0  0  0  0  0  0  0  0  0  0  0
   -3.7500   -3.8971    0.0000 C   0  0  0  0  0  0  0  0  0  0  0  0
   -3.0000   -5.1962    0.0000 C   0  0  0  0  0  0  0  0  0  0  0  0
   -1.5000   -5.1962    0.0000 C   0  0  0  0  0  0  0  0  0  0  0  0
   -0.7500   -3.8971    0.0000 C   0  0  0  0  0  0  0  0  0  0  0  0
    2.9410   -8.8418    0.0000 C   0  0  0  0  0  0  0  0  0  0  0  0
    1.5314   -8.3287    0.0000 O   0  0  0  0  0  0  0  0  0  0  0  0
    0.3824   -9.2929    0.0000 O   0  0  0  0  0  0  0  0  0  0  0  0
   -1.0272   -8.7799    0.0000 C   0  0  0  0  0  0  0  0  0  0  0  0
   -1.2877   -7.3027    0.0000 C   0  0  0  0  0  0  0  0  0  0  0  0
   -2.2518   -6.1536    0.0000 C   0  0  0  0  0  0  0  0  0  0  0  0
   -0.7746   -5.8931    0.0000 O   0  0  0  0  0  0  0  0  0  0  0  0
  1  2  1  0
  2  3  1  0
  3  4  1  0
  4  5  1  0
  5  6  1  0
  6  7  2  0
  6  8  1  0
  8  9  1  0
  9 10  1  0
 10 11  1  0
 10 12  1  0
 12 13  1  0
 13 14  1  0
 14 15  1  0
 14 16  1  0
 16 17  1  0
  8 18  1  0
 18 19  2  0
 18 20  1  0
 20 21  1  0
 21 22  1  0
 22 23  1  0
 22 24  1  0
 24 25  1  0
 25 26  2  0
 25 27  1  0
 27 28  1  0
 28 29  2  0
 29 30  1  0
 30 31  2  0
 31 32  1  0
 32 33  2  0
 33 34  1  0
 34 35  2  0
 35 36  1  0
 36 37  2  0
 37 38  1  0
 38 39  2  0
 20 40  1  0
 40 41  2  0
  3 42  1  0
 42 43  1  0
 43 44  1  0
 44 45  1  0
 45 46  1  0
 40  5  1  0
 46 44  1  0
 39 25  1  0
 33 28  1  0
 39 34  1  0
M  END
>  <Candidate_ID>  (158) 
CAND_R2_158

>  <Candidate_Name>  (158) 
DTB-OH-glycidyl

>  <Parent_Seed_ID>  (158) 
TRAIN_018

>  <Parent_Name>  (158) 
DTB

>  <Transformation_Code>  (158) 
OH_glycidyl

>  <Design_Family>  (158) 
P-N-B

>  <Preparation_Type>  (158) 
Co-curing

>  <Synthesis_Level>  (158) 
B

>  <Parent_Tanimoto_r3>  (158) 
0.77

>  <Max_Train_Tanimoto_r3>  (158) 
0.77

>  <Risk_Flags>  (158) 
none

$$$$
CAND_R2_159 | DTB-OH-glycidyl-2
     RDKit          2D

 46 50  0  0  0  0  0  0  0  0999 V2000
   -1.9158  -11.2213    0.0000 C   0  0  0  0  0  0  0  0  0  0  0  0
   -0.5062  -11.7343    0.0000 C   0  0  0  0  0  0  0  0  0  0  0  0
    0.6428  -10.7701    0.0000 C   0  0  0  0  0  0  0  0  0  0  0  0
    0.3824   -9.2929    0.0000 O   0  0  0  0  0  0  0  0  0  0  0  0
    2.0524  -11.2832    0.0000 C   0  0  0  0  0  0  0  0  0  0  0  0
    3.2014  -10.3190    0.0000 N   0  0  0  0  0  0  0  0  0  0  0  0
    2.9410   -8.8418    0.0000 C   0  0  0  0  0  0  0  0  0  0  0  0
    1.5314   -8.3287    0.0000 O   0  0  0  0  0  0  0  0  0  0  0  0
    4.0900   -7.8776    0.0000 N   0  0  0  0  0  0  0  0  0  0  0  0
    3.8296   -6.4004    0.0000 C   0  0  0  0  0  0  0  0  0  0  0  0
    2.4200   -5.8874    0.0000 C   0  0  0  0  0  0  0  0  0  0  0  0
    1.2709   -6.8515    0.0000 O   0  0  0  0  0  0  0  0  0  0  0  0
    2.1595   -4.4101    0.0000 C   0  0  0  0  0  0  0  0  0  0  0  0
    0.7500   -3.8971    0.0000 P   0  0  0  0  0  0  0  0  0  0  0  0
    0.4895   -5.3743    0.0000 O   0  0  0  0  0  0  0  0  0  0  0  0
    1.5000   -2.5981    0.0000 O   0  0  0  0  0  0  0  0  0  0  0  0
    0.7500   -1.2990    0.0000 C   0  0  0  0  0  0  0  0  0  0  0  0
    1.5000    0.0000    0.0000 C   0  0  0  0  0  0  0  0  0  0  0  0
    0.7500    1.2990    0.0000 C   0  0  0  0  0  0  0  0  0  0  0  0
   -0.7500    1.2990    0.0000 C   0  0  0  0  0  0  0  0  0  0  0  0
   -1.5000    0.0000    0.0000 C   0  0  0  0  0  0  0  0  0  0  0  0
   -0.7500   -1.2990    0.0000 C   0  0  0  0  0  0  0  0  0  0  0  0
   -1.5000   -2.5981    0.0000 C   0  0  0  0  0  0  0  0  0  0  0  0
   -3.0000   -2.5981    0.0000 C   0  0  0  0  0  0  0  0  0  0  0  0
   -3.7500   -3.8971    0.0000 C   0  0  0  0  0  0  0  0  0  0  0  0
   -3.0000   -5.1962    0.0000 C   0  0  0  0  0  0  0  0  0  0  0  0
   -1.5000   -5.1962    0.0000 C   0  0  0  0  0  0  0  0  0  0  0  0
   -0.7500   -3.8971    0.0000 C   0  0  0  0  0  0  0  0  0  0  0  0
    5.4996   -8.3906    0.0000 C   0  0  0  0  0  0  0  0  0  0  0  0
    6.6486   -7.4264    0.0000 O   0  0  0  0  0  0  0  0  0  0  0  0
    5.7600   -9.8678    0.0000 N   0  0  0  0  0  0  0  0  0  0  0  0
    7.1696  -10.3809    0.0000 C   0  0  0  0  0  0  0  0  0  0  0  0
    7.4300  -11.8581    0.0000 C   0  0  0  0  0  0  0  0  0  0  0  0
    8.8396  -12.3711    0.0000 C   0  0  0  0  0  0  0  0  0  0  0  0
    9.1001  -13.8483    0.0000 O   0  0  0  0  0  0  0  0  0  0  0  0
   10.5096  -14.3614    0.0000 B   0  0  0  0  0  0  0  0  0  0  0  0
   10.7701  -15.8386    0.0000 O   0  0  0  0  0  0  0  0  0  0  0  0
   11.6587  -13.3972    0.0000 O   0  0  0  0  0  0  0  0  0  0  0  0
   13.0682  -13.9102    0.0000 C   0  0  0  0  0  0  0  0  0  0  0  0
    6.2810  -12.8223    0.0000 O   0  0  0  0  0  0  0  0  0  0  0  0
    6.5415  -14.2995    0.0000 C   0  0  0  0  0  0  0  0  0  0  0  0
    5.3924  -15.2637    0.0000 C   0  0  0  0  0  0  0  0  0  0  0  0
    4.8794  -16.6732    0.0000 C   0  0  0  0  0  0  0  0  0  0  0  0
    3.9152  -15.5241    0.0000 O   0  0  0  0  0  0  0  0  0  0  0  0
    4.6110  -10.8320    0.0000 C   0  0  0  0  0  0  0  0  0  0  0  0
    4.8714  -12.3092    0.0000 O   0  0  0  0  0  0  0  0  0  0  0  0
  1  2  1  0
  2  3  1  0
  3  4  1  0
  3  5  1  0
  5  6  1  0
  6  7  1  0
  7  8  2  0
  7  9  1  0
  9 10  1  0
 10 11  1  0
 11 12  1  0
 11 13  1  0
 13 14  1  0
 14 15  2  0
 14 16  1  0
 16 17  1  0
 17 18  2  0
 18 19  1  0
 19 20  2  0
 20 21  1  0
 21 22  2  0
 22 23  1  0
 23 24  2  0
 24 25  1  0
 25 26  2  0
 26 27  1  0
 27 28  2  0
  9 29  1  0
 29 30  2  0
 29 31  1  0
 31 32  1  0
 32 33  1  0
 33 34  1  0
 34 35  1  0
 35 36  1  0
 36 37  1  0
 36 38  1  0
 38 39  1  0
 33 40  1  0
 40 41  1  0
 41 42  1  0
 42 43  1  0
 43 44  1  0
 31 45  1  0
 45 46  2  0
 45  6  1  0
 28 14  1  0
 44 42  1  0
 22 17  1  0
 28 23  1  0
M  END
>  <Candidate_ID>  (159) 
CAND_R2_159

>  <Candidate_Name>  (159) 
DTB-OH-glycidyl-2

>  <Parent_Seed_ID>  (159) 
TRAIN_018

>  <Parent_Name>  (159) 
DTB

>  <Transformation_Code>  (159) 
OH_glycidyl

>  <Design_Family>  (159) 
P-N-B

>  <Preparation_Type>  (159) 
Co-curing

>  <Synthesis_Level>  (159) 
B

>  <Parent_Tanimoto_r3>  (159) 
0.74

>  <Max_Train_Tanimoto_r3>  (159) 
0.74

>  <Risk_Flags>  (159) 
none

$$$$
CAND_R2_160 | DTB-OH-glycidyl-3
     RDKit          2D

 46 50  0  0  0  0  0  0  0  0999 V2000
    9.1001  -13.8483    0.0000 C   0  0  0  0  0  0  0  0  0  0  0  0
    8.8396  -12.3711    0.0000 C   0  0  0  0  0  0  0  0  0  0  0  0
    7.4300  -11.8581    0.0000 C   0  0  0  0  0  0  0  0  0  0  0  0
    6.2810  -12.8223    0.0000 O   0  0  0  0  0  0  0  0  0  0  0  0
    7.1696  -10.3809    0.0000 C   0  0  0  0  0  0  0  0  0  0  0  0
    5.7600   -9.8678    0.0000 N   0  0  0  0  0  0  0  0  0  0  0  0
    4.6110  -10.8320    0.0000 C   0  0  0  0  0  0  0  0  0  0  0  0
    4.8714  -12.3092    0.0000 O   0  0  0  0  0  0  0  0  0  0  0  0
    3.2014  -10.3190    0.0000 N   0  0  0  0  0  0  0  0  0  0  0  0
    2.0524  -11.2832    0.0000 C   0  0  0  0  0  0  0  0  0  0  0  0
    0.6428  -10.7701    0.0000 C   0  0  0  0  0  0  0  0  0  0  0  0
    0.3824   -9.2929    0.0000 O   0  0  0  0  0  0  0  0  0  0  0  0
   -0.5062  -11.7343    0.0000 C   0  0  0  0  0  0  0  0  0  0  0  0
   -1.9158  -11.2213    0.0000 O   0  0  0  0  0  0  0  0  0  0  0  0
   -3.0648  -12.1855    0.0000 B   0  0  0  0  0  0  0  0  0  0  0  0
   -4.4744  -11.6724    0.0000 O   0  0  0  0  0  0  0  0  0  0  0  0
   -2.8044  -13.6627    0.0000 O   0  0  0  0  0  0  0  0  0  0  0  0
   -3.9534  -14.6269    0.0000 C   0  0  0  0  0  0  0  0  0  0  0  0
    2.9410   -8.8418    0.0000 C   0  0  0  0  0  0  0  0  0  0  0  0
    1.5314   -8.3287    0.0000 O   0  0  0  0  0  0  0  0  0  0  0  0
    4.0900   -7.8776    0.0000 N   0  0  0  0  0  0  0  0  0  0  0  0
    3.8296   -6.4004    0.0000 C   0  0  0  0  0  0  0  0  0  0  0  0
    2.4200   -5.8874    0.0000 C   0  0  0  0  0  0  0  0  0  0  0  0
    2.1595   -4.4101    0.0000 C   0  0  0  0  0  0  0  0  0  0  0  0
    0.7500   -3.8971    0.0000 P   0  0  0  0  0  0  0  0  0  0  0  0
    0.4895   -5.3743    0.0000 O   0  0  0  0  0  0  0  0  0  0  0  0
    1.5000   -2.5981    0.0000 O   0  0  0  0  0  0  0  0  0  0  0  0
    0.7500   -1.2990    0.0000 C   0  0  0  0  0  0  0  0  0  0  0  0
    1.5000    0.0000    0.0000 C   0  0  0  0  0  0  0  0  0  0  0  0
    0.7500    1.2990    0.0000 C   0  0  0  0  0  0  0  0  0  0  0  0
   -0.7500    1.2990    0.0000 C   0  0  0  0  0  0  0  0  0  0  0  0
   -1.5000    0.0000    0.0000 C   0  0  0  0  0  0  0  0  0  0  0  0
   -0.7500   -1.2990    0.0000 C   0  0  0  0  0  0  0  0  0  0  0  0
   -1.5000   -2.5981    0.0000 C   0  0  0  0  0  0  0  0  0  0  0  0
   -3.0000   -2.5981    0.0000 C   0  0  0  0  0  0  0  0  0  0  0  0
   -3.7500   -3.8971    0.0000 C   0  0  0  0  0  0  0  0  0  0  0  0
   -3.0000   -5.1962    0.0000 C   0  0  0  0  0  0  0  0  0  0  0  0
   -1.5000   -5.1962    0.0000 C   0  0  0  0  0  0  0  0  0  0  0  0
   -0.7500   -3.8971    0.0000 C   0  0  0  0  0  0  0  0  0  0  0  0
    1.2709   -6.8515    0.0000 O   0  0  0  0  0  0  0  0  0  0  0  0
   -0.1386   -6.3385    0.0000 C   0  0  0  0  0  0  0  0  0  0  0  0
   -1.2877   -7.3027    0.0000 C   0  0  0  0  0  0  0  0  0  0  0  0
   -2.7649   -7.5632    0.0000 C   0  0  0  0  0  0  0  0  0  0  0  0
   -1.8007   -8.7122    0.0000 O   0  0  0  0  0  0  0  0  0  0  0  0
    5.4996   -8.3906    0.0000 C   0  0  0  0  0  0  0  0  0  0  0  0
    6.6486   -7.4264    0.0000 O   0  0  0  0  0  0  0  0  0  0  0  0
  1  2  1  0
  2  3  1  0
  3  4  1  0
  3  5  1  0
  5  6  1  0
  6  7  1  0
  7  8  2  0
  7  9  1  0
  9 10  1  0
 10 11  1  0
 11 12  1  0
 11 13  1  0
 13 14  1  0
 14 15  1  0
 15 16  1  0
 15 17  1  0
 17 18  1  0
  9 19  1  0
 19 20  2  0
 19 21  1  0
 21 22  1  0
 22 23  1  0
 23 24  1  0
 24 25  1  0
 25 26  2  0
 25 27  1  0
 27 28  1  0
 28 29  2  0
 29 30  1  0
 30 31  2  0
 31 32  1  0
 32 33  2  0
 33 34  1  0
 34 35  2  0
 35 36  1  0
 36 37  2  0
 37 38  1  0
 38 39  2  0
 23 40  1  0
 40 41  1  0
 41 42  1  0
 42 43  1  0
 43 44  1  0
 21 45  1  0
 45 46  2  0
 45  6  1  0
 39 25  1  0
 44 42  1  0
 33 28  1  0
 39 34  1  0
M  END
>  <Candidate_ID>  (160) 
CAND_R2_160

>  <Candidate_Name>  (160) 
DTB-OH-glycidyl-3

>  <Parent_Seed_ID>  (160) 
TRAIN_018

>  <Parent_Name>  (160) 
DTB

>  <Transformation_Code>  (160) 
OH_glycidyl

>  <Design_Family>  (160) 
P-N-B

>  <Preparation_Type>  (160) 
Co-curing

>  <Synthesis_Level>  (160) 
B

>  <Parent_Tanimoto_r3>  (160) 
0.7254901960784313

>  <Max_Train_Tanimoto_r3>  (160) 
0.7254901960784313

>  <Risk_Flags>  (160) 
none

$$$$
CAND_R2_161 | DTB-OH-glycidyl-all
     RDKit          2D

 54 60  0  0  0  0  0  0  0  0999 V2000
    1.4242  -15.2018    0.0000 C   0  0  0  0  0  0  0  0  0  0  0  0
    1.1638  -13.7246    0.0000 C   0  0  0  0  0  0  0  0  0  0  0  0
    2.3128  -12.7604    0.0000 C   0  0  0  0  0  0  0  0  0  0  0  0
    2.0524  -11.2832    0.0000 C   0  0  0  0  0  0  0  0  0  0  0  0
    3.2014  -10.3190    0.0000 N   0  0  0  0  0  0  0  0  0  0  0  0
    4.6110  -10.8320    0.0000 C   0  0  0  0  0  0  0  0  0  0  0  0
    4.8714  -12.3092    0.0000 O   0  0  0  0  0  0  0  0  0  0  0  0
    5.7600   -9.8678    0.0000 N   0  0  0  0  0  0  0  0  0  0  0  0
    7.1696  -10.3809    0.0000 C   0  0  0  0  0  0  0  0  0  0  0  0
    8.3186   -9.4167    0.0000 C   0  0  0  0  0  0  0  0  0  0  0  0
    9.7282   -9.9297    0.0000 C   0  0  0  0  0  0  0  0  0  0  0  0
   10.8772   -8.9655    0.0000 O   0  0  0  0  0  0  0  0  0  0  0  0
   12.2868   -9.4786    0.0000 B   0  0  0  0  0  0  0  0  0  0  0  0
   13.4359   -8.5144    0.0000 O   0  0  0  0  0  0  0  0  0  0  0  0
   12.5473  -10.9558    0.0000 O   0  0  0  0  0  0  0  0  0  0  0  0
   13.9568  -11.4688    0.0000 C   0  0  0  0  0  0  0  0  0  0  0  0
    8.0582   -7.9395    0.0000 O   0  0  0  0  0  0  0  0  0  0  0  0
    9.2072   -6.9753    0.0000 C   0  0  0  0  0  0  0  0  0  0  0  0
    8.9468   -5.4981    0.0000 C   0  0  0  0  0  0  0  0  0  0  0  0
    7.9826   -4.3490    0.0000 C   0  0  0  0  0  0  0  0  0  0  0  0
    9.4598   -4.0885    0.0000 O   0  0  0  0  0  0  0  0  0  0  0  0
    5.4996   -8.3906    0.0000 C   0  0  0  0  0  0  0  0  0  0  0  0
    6.6486   -7.4264    0.0000 O   0  0  0  0  0  0  0  0  0  0  0  0
    4.0900   -7.8776    0.0000 N   0  0  0  0  0  0  0  0  0  0  0  0
    3.8296   -6.4004    0.0000 C   0  0  0  0  0  0  0  0  0  0  0  0
    2.4200   -5.8874    0.0000 C   0  0  0  0  0  0  0  0  0  0  0  0
    1.2709   -6.8515    0.0000 C   0  0  0  0  0  0  0  0  0  0  0  0
   -0.1386   -6.3385    0.0000 P   0  0  0  0  0  0  0  0  0  0  0  0
    0.6114   -5.0395    0.0000 O   0  0  0  0  0  0  0  0  0  0  0  0
   -0.3991   -7.8157    0.0000 O   0  0  0  0  0  0  0  0  0  0  0  0
   -1.8086   -8.3287    0.0000 C   0  0  0  0  0  0  0  0  0  0  0  0
   -2.0691   -9.8060    0.0000 C   0  0  0  0  0  0  0  0  0  0  0  0
   -3.4786  -10.3190    0.0000 C   0  0  0  0  0  0  0  0  0  0  0  0
   -4.6277   -9.3548    0.0000 C   0  0  0  0  0  0  0  0  0  0  0  0
   -4.3672   -7.8776    0.0000 C   0  0  0  0  0  0  0  0  0  0  0  0
   -2.9577   -7.3646    0.0000 C   0  0  0  0  0  0  0  0  0  0  0  0
   -2.6972   -5.8874    0.0000 C   0  0  0  0  0  0  0  0  0  0  0  0
   -3.8463   -4.9232    0.0000 C   0  0  0  0  0  0  0  0  0  0  0  0
   -3.5858   -3.4460    0.0000 C   0  0  0  0  0  0  0  0  0  0  0  0
   -2.1763   -2.9329    0.0000 C   0  0  0  0  0  0  0  0  0  0  0  0
   -1.0272   -3.8971    0.0000 C   0  0  0  0  0  0  0  0  0  0  0  0
   -1.2877   -5.3743    0.0000 C   0  0  0  0  0  0  0  0  0  0  0  0
    2.1595   -4.4101    0.0000 O   0  0  0  0  0  0  0  0  0  0  0  0
    3.3086   -3.4460    0.0000 C   0  0  0  0  0  0  0  0  0  0  0  0
    3.0481   -1.9688    0.0000 C   0  0  0  0  0  0  0  0  0  0  0  0
    3.5612   -0.5592    0.0000 C   0  0  0  0  0  0  0  0  0  0  0  0
    2.0840   -0.8197    0.0000 O   0  0  0  0  0  0  0  0  0  0  0  0
    2.9410   -8.8418    0.0000 C   0  0  0  0  0  0  0  0  0  0  0  0
    1.5314   -8.3287    0.0000 O   0  0  0  0  0  0  0  0  0  0  0  0
    3.7224  -13.2734    0.0000 O   0  0  0  0  0  0  0  0  0  0  0  0
    3.9828  -14.7506    0.0000 C   0  0  0  0  0  0  0  0  0  0  0  0
    5.3924  -15.2637    0.0000 C   0  0  0  0  0  0  0  0  0  0  0  0
    6.8696  -15.0032    0.0000 C   0  0  0  0  0  0  0  0  0  0  0  0
    6.3566  -16.4127    0.0000 O   0  0  0  0  0  0  0  0  0  0  0  0
  1  2  1  0
  2  3  1  0
  3  4  1  0
  4  5  1  0
  5  6  1  0
  6  7  2  0
  6  8  1  0
  8  9  1  0
  9 10  1  0
 10 11  1  0
 11 12  1  0
 12 13  1  0
 13 14  1  0
 13 15  1  0
 15 16  1  0
 10 17  1  0
 17 18  1  0
 18 19  1  0
 19 20  1  0
 20 21  1  0
  8 22  1  0
 22 23  2  0
 22 24  1  0
 24 25  1  0
 25 26  1  0
 26 27  1  0
 27 28  1  0
 28 29  2  0
 28 30  1  0
 30 31  1  0
 31 32  2  0
 32 33  1  0
 33 34  2  0
 34 35  1  0
 35 36  2  0
 36 37  1  0
 37 38  2  0
 38 39  1  0
 39 40  2  0
 40 41  1  0
 41 42  2  0
 26 43  1  0
 43 44  1  0
 44 45  1  0
 45 46  1  0
 46 47  1  0
 24 48  1  0
 48 49  2  0
  3 50  1  0
 50 51  1  0
 51 52  1  0
 52 53  1  0
 53 54  1  0
 48  5  1  0
 54 52  1  0
 21 19  1  0
 42 28  1  0
 47 45  1  0
 36 31  1  0
 42 37  1  0
M  END
>  <Candidate_ID>  (161) 
CAND_R2_161

>  <Candidate_Name>  (161) 
DTB-OH-glycidyl-all

>  <Parent_Seed_ID>  (161) 
TRAIN_018

>  <Parent_Name>  (161) 
DTB

>  <Transformation_Code>  (161) 
OH_glycidyl_all

>  <Design_Family>  (161) 
P-N-B

>  <Preparation_Type>  (161) 
Co-curing

>  <Synthesis_Level>  (161) 
B

>  <Parent_Tanimoto_r3>  (161) 
0.5675675675675675

>  <Max_Train_Tanimoto_r3>  (161) 
0.5675675675675675

>  <Risk_Flags>  (161) 
large structural change from parent; candidate may be outside strict in-domain threshold

$$$$
CAND_R2_162 | DTB-OH-methyl
     RDKit          2D

 43 46  0  0  0  0  0  0  0  0999 V2000
    9.1001  -13.8483    0.0000 C   0  0  0  0  0  0  0  0  0  0  0  0
    8.8396  -12.3711    0.0000 C   0  0  0  0  0  0  0  0  0  0  0  0
    7.4300  -11.8581    0.0000 C   0  0  0  0  0  0  0  0  0  0  0  0
    7.1696  -10.3809    0.0000 C   0  0  0  0  0  0  0  0  0  0  0  0
    5.7600   -9.8678    0.0000 N   0  0  0  0  0  0  0  0  0  0  0  0
    4.6110  -10.8320    0.0000 C   0  0  0  0  0  0  0  0  0  0  0  0
    4.8714  -12.3092    0.0000 O   0  0  0  0  0  0  0  0  0  0  0  0
    3.2014  -10.3190    0.0000 N   0  0  0  0  0  0  0  0  0  0  0  0
    2.0524  -11.2832    0.0000 C   0  0  0  0  0  0  0  0  0  0  0  0
    0.6428  -10.7701    0.0000 C   0  0  0  0  0  0  0  0  0  0  0  0
    0.3824   -9.2929    0.0000 O   0  0  0  0  0  0  0  0  0  0  0  0
   -0.5062  -11.7343    0.0000 C   0  0  0  0  0  0  0  0  0  0  0  0
   -1.9158  -11.2213    0.0000 O   0  0  0  0  0  0  0  0  0  0  0  0
   -3.0648  -12.1855    0.0000 B   0  0  0  0  0  0  0  0  0  0  0  0
   -4.4744  -11.6724    0.0000 O   0  0  0  0  0  0  0  0  0  0  0  0
   -2.8044  -13.6627    0.0000 O   0  0  0  0  0  0  0  0  0  0  0  0
   -3.9534  -14.6269    0.0000 C   0  0  0  0  0  0  0  0  0  0  0  0
    2.9410   -8.8418    0.0000 C   0  0  0  0  0  0  0  0  0  0  0  0
    1.5314   -8.3287    0.0000 O   0  0  0  0  0  0  0  0  0  0  0  0
    4.0900   -7.8776    0.0000 N   0  0  0  0  0  0  0  0  0  0  0  0
    3.8296   -6.4004    0.0000 C   0  0  0  0  0  0  0  0  0  0  0  0
    2.4200   -5.8874    0.0000 C   0  0  0  0  0  0  0  0  0  0  0  0
    1.2709   -6.8515    0.0000 O   0  0  0  0  0  0  0  0  0  0  0  0
    2.1595   -4.4101    0.0000 C   0  0  0  0  0  0  0  0  0  0  0  0
    0.7500   -3.8971    0.0000 P   0  0  0  0  0  0  0  0  0  0  0  0
    0.4895   -5.3743    0.0000 O   0  0  0  0  0  0  0  0  0  0  0  0
    1.5000   -2.5981    0.0000 O   0  0  0  0  0  0  0  0  0  0  0  0
    0.7500   -1.2990    0.0000 C   0  0  0  0  0  0  0  0  0  0  0  0
    1.5000    0.0000    0.0000 C   0  0  0  0  0  0  0  0  0  0  0  0
    0.7500    1.2990    0.0000 C   0  0  0  0  0  0  0  0  0  0  0  0
   -0.7500    1.2990    0.0000 C   0  0  0  0  0  0  0  0  0  0  0  0
   -1.5000    0.0000    0.0000 C   0  0  0  0  0  0  0  0  0  0  0  0
   -0.7500   -1.2990    0.0000 C   0  0  0  0  0  0  0  0  0  0  0  0
   -1.5000   -2.5981    0.0000 C   0  0  0  0  0  0  0  0  0  0  0  0
   -3.0000   -2.5981    0.0000 C   0  0  0  0  0  0  0  0  0  0  0  0
   -3.7500   -3.8971    0.0000 C   0  0  0  0  0  0  0  0  0  0  0  0
   -3.0000   -5.1962    0.0000 C   0  0  0  0  0  0  0  0  0  0  0  0
   -1.5000   -5.1962    0.0000 C   0  0  0  0  0  0  0  0  0  0  0  0
   -0.7500   -3.8971    0.0000 C   0  0  0  0  0  0  0  0  0  0  0  0
    5.4996   -8.3906    0.0000 C   0  0  0  0  0  0  0  0  0  0  0  0
    6.6486   -7.4264    0.0000 O   0  0  0  0  0  0  0  0  0  0  0  0
    6.2810  -12.8223    0.0000 O   0  0  0  0  0  0  0  0  0  0  0  0
    6.5415  -14.2995    0.0000 C   0  0  0  0  0  0  0  0  0  0  0  0
  1  2  1  0
  2  3  1  0
  3  4  1  0
  4  5  1  0
  5  6  1  0
  6  7  2  0
  6  8  1  0
  8  9  1  0
  9 10  1  0
 10 11  1  0
 10 12  1  0
 12 13  1  0
 13 14  1  0
 14 15  1  0
 14 16  1  0
 16 17  1  0
  8 18  1  0
 18 19  2  0
 18 20  1  0
 20 21  1  0
 21 22  1  0
 22 23  1  0
 22 24  1  0
 24 25  1  0
 25 26  2  0
 25 27  1  0
 27 28  1  0
 28 29  2  0
 29 30  1  0
 30 31  2  0
 31 32  1  0
 32 33  2  0
 33 34  1  0
 34 35  2  0
 35 36  1  0
 36 37  2  0
 37 38  1  0
 38 39  2  0
 20 40  1  0
 40 41  2  0
  3 42  1  0
 42 43  1  0
 40  5  1  0
 39 25  1  0
 33 28  1  0
 39 34  1  0
M  END
>  <Candidate_ID>  (162) 
CAND_R2_162

>  <Candidate_Name>  (162) 
DTB-OH-methyl

>  <Parent_Seed_ID>  (162) 
TRAIN_018

>  <Parent_Name>  (162) 
DTB

>  <Transformation_Code>  (162) 
OH_methyl

>  <Design_Family>  (162) 
P-N-B

>  <Preparation_Type>  (162) 
Additive

>  <Synthesis_Level>  (162) 
B

>  <Parent_Tanimoto_r3>  (162) 
0.8651685393258427

>  <Max_Train_Tanimoto_r3>  (162) 
0.8651685393258427

>  <Risk_Flags>  (162) 
none

$$$$
CAND_R2_163 | DTB-OH-methyl-2
     RDKit          2D

 43 46  0  0  0  0  0  0  0  0999 V2000
   -1.9158  -11.2213    0.0000 C   0  0  0  0  0  0  0  0  0  0  0  0
   -0.5062  -11.7343    0.0000 C   0  0  0  0  0  0  0  0  0  0  0  0
    0.6428  -10.7701    0.0000 C   0  0  0  0  0  0  0  0  0  0  0  0
    0.3824   -9.2929    0.0000 O   0  0  0  0  0  0  0  0  0  0  0  0
    2.0524  -11.2832    0.0000 C   0  0  0  0  0  0  0  0  0  0  0  0
    3.2014  -10.3190    0.0000 N   0  0  0  0  0  0  0  0  0  0  0  0
    2.9410   -8.8418    0.0000 C   0  0  0  0  0  0  0  0  0  0  0  0
    1.5314   -8.3287    0.0000 O   0  0  0  0  0  0  0  0  0  0  0  0
    4.0900   -7.8776    0.0000 N   0  0  0  0  0  0  0  0  0  0  0  0
    3.8296   -6.4004    0.0000 C   0  0  0  0  0  0  0  0  0  0  0  0
    2.4200   -5.8874    0.0000 C   0  0  0  0  0  0  0  0  0  0  0  0
    1.2709   -6.8515    0.0000 O   0  0  0  0  0  0  0  0  0  0  0  0
    2.1595   -4.4101    0.0000 C   0  0  0  0  0  0  0  0  0  0  0  0
    0.7500   -3.8971    0.0000 P   0  0  0  0  0  0  0  0  0  0  0  0
    0.4895   -5.3743    0.0000 O   0  0  0  0  0  0  0  0  0  0  0  0
    1.5000   -2.5981    0.0000 O   0  0  0  0  0  0  0  0  0  0  0  0
    0.7500   -1.2990    0.0000 C   0  0  0  0  0  0  0  0  0  0  0  0
    1.5000    0.0000    0.0000 C   0  0  0  0  0  0  0  0  0  0  0  0
    0.7500    1.2990    0.0000 C   0  0  0  0  0  0  0  0  0  0  0  0
   -0.7500    1.2990    0.0000 C   0  0  0  0  0  0  0  0  0  0  0  0
   -1.5000    0.0000    0.0000 C   0  0  0  0  0  0  0  0  0  0  0  0
   -0.7500   -1.2990    0.0000 C   0  0  0  0  0  0  0  0  0  0  0  0
   -1.5000   -2.5981    0.0000 C   0  0  0  0  0  0  0  0  0  0  0  0
   -3.0000   -2.5981    0.0000 C   0  0  0  0  0  0  0  0  0  0  0  0
   -3.7500   -3.8971    0.0000 C   0  0  0  0  0  0  0  0  0  0  0  0
   -3.0000   -5.1962    0.0000 C   0  0  0  0  0  0  0  0  0  0  0  0
   -1.5000   -5.1962    0.0000 C   0  0  0  0  0  0  0  0  0  0  0  0
   -0.7500   -3.8971    0.0000 C   0  0  0  0  0  0  0  0  0  0  0  0
    5.4996   -8.3906    0.0000 C   0  0  0  0  0  0  0  0  0  0  0  0
    6.6486   -7.4264    0.0000 O   0  0  0  0  0  0  0  0  0  0  0  0
    5.7600   -9.8678    0.0000 N   0  0  0  0  0  0  0  0  0  0  0  0
    7.1696  -10.3809    0.0000 C   0  0  0  0  0  0  0  0  0  0  0  0
    7.4300  -11.8581    0.0000 C   0  0  0  0  0  0  0  0  0  0  0  0
    8.8396  -12.3711    0.0000 C   0  0  0  0  0  0  0  0  0  0  0  0
    9.1001  -13.8483    0.0000 O   0  0  0  0  0  0  0  0  0  0  0  0
   10.5096  -14.3614    0.0000 B   0  0  0  0  0  0  0  0  0  0  0  0
   10.7701  -15.8386    0.0000 O   0  0  0  0  0  0  0  0  0  0  0  0
   11.6587  -13.3972    0.0000 O   0  0  0  0  0  0  0  0  0  0  0  0
   13.0682  -13.9102    0.0000 C   0  0  0  0  0  0  0  0  0  0  0  0
    6.2810  -12.8223    0.0000 O   0  0  0  0  0  0  0  0  0  0  0  0
    6.5415  -14.2995    0.0000 C   0  0  0  0  0  0  0  0  0  0  0  0
    4.6110  -10.8320    0.0000 C   0  0  0  0  0  0  0  0  0  0  0  0
    4.8714  -12.3092    0.0000 O   0  0  0  0  0  0  0  0  0  0  0  0
  1  2  1  0
  2  3  1  0
  3  4  1  0
  3  5  1  0
  5  6  1  0
  6  7  1  0
  7  8  2  0
  7  9  1  0
  9 10  1  0
 10 11  1  0
 11 12  1  0
 11 13  1  0
 13 14  1  0
 14 15  2  0
 14 16  1  0
 16 17  1  0
 17 18  2  0
 18 19  1  0
 19 20  2  0
 20 21  1  0
 21 22  2  0
 22 23  1  0
 23 24  2  0
 24 25  1  0
 25 26  2  0
 26 27  1  0
 27 28  2  0
  9 29  1  0
 29 30  2  0
 29 31  1  0
 31 32  1  0
 32 33  1  0
 33 34  1  0
 34 35  1  0
 35 36  1  0
 36 37  1  0
 36 38  1  0
 38 39  1  0
 33 40  1  0
 40 41  1  0
 31 42  1  0
 42 43  2  0
 42  6  1  0
 28 14  1  0
 22 17  1  0
 28 23  1  0
M  END
>  <Candidate_ID>  (163) 
CAND_R2_163

>  <Candidate_Name>  (163) 
DTB-OH-methyl-2

>  <Parent_Seed_ID>  (163) 
TRAIN_018

>  <Parent_Name>  (163) 
DTB

>  <Transformation_Code>  (163) 
OH_methyl

>  <Design_Family>  (163) 
P-N-B

>  <Preparation_Type>  (163) 
Additive

>  <Synthesis_Level>  (163) 
B

>  <Parent_Tanimoto_r3>  (163) 
0.8131868131868132

>  <Max_Train_Tanimoto_r3>  (163) 
0.8131868131868132

>  <Risk_Flags>  (163) 
none

$$$$
CAND_R2_164 | DTB-OH-methyl-3
     RDKit          2D

 43 46  0  0  0  0  0  0  0  0999 V2000
    9.1001  -13.8483    0.0000 C   0  0  0  0  0  0  0  0  0  0  0  0
    8.8396  -12.3711    0.0000 C   0  0  0  0  0  0  0  0  0  0  0  0
    7.4300  -11.8581    0.0000 C   0  0  0  0  0  0  0  0  0  0  0  0
    6.2810  -12.8223    0.0000 O   0  0  0  0  0  0  0  0  0  0  0  0
    7.1696  -10.3809    0.0000 C   0  0  0  0  0  0  0  0  0  0  0  0
    5.7600   -9.8678    0.0000 N   0  0  0  0  0  0  0  0  0  0  0  0
    4.6110  -10.8320    0.0000 C   0  0  0  0  0  0  0  0  0  0  0  0
    4.8714  -12.3092    0.0000 O   0  0  0  0  0  0  0  0  0  0  0  0
    3.2014  -10.3190    0.0000 N   0  0  0  0  0  0  0  0  0  0  0  0
    2.0524  -11.2832    0.0000 C   0  0  0  0  0  0  0  0  0  0  0  0
    0.6428  -10.7701    0.0000 C   0  0  0  0  0  0  0  0  0  0  0  0
    0.3824   -9.2929    0.0000 O   0  0  0  0  0  0  0  0  0  0  0  0
   -0.5062  -11.7343    0.0000 C   0  0  0  0  0  0  0  0  0  0  0  0
   -1.9158  -11.2213    0.0000 O   0  0  0  0  0  0  0  0  0  0  0  0
   -3.0648  -12.1855    0.0000 B   0  0  0  0  0  0  0  0  0  0  0  0
   -4.4744  -11.6724    0.0000 O   0  0  0  0  0  0  0  0  0  0  0  0
   -2.8044  -13.6627    0.0000 O   0  0  0  0  0  0  0  0  0  0  0  0
   -3.9534  -14.6269    0.0000 C   0  0  0  0  0  0  0  0  0  0  0  0
    2.9410   -8.8418    0.0000 C   0  0  0  0  0  0  0  0  0  0  0  0
    1.5314   -8.3287    0.0000 O   0  0  0  0  0  0  0  0  0  0  0  0
    4.0900   -7.8776    0.0000 N   0  0  0  0  0  0  0  0  0  0  0  0
    3.8296   -6.4004    0.0000 C   0  0  0  0  0  0  0  0  0  0  0  0
    2.4200   -5.8874    0.0000 C   0  0  0  0  0  0  0  0  0  0  0  0
    2.1595   -4.4101    0.0000 C   0  0  0  0  0  0  0  0  0  0  0  0
    0.7500   -3.8971    0.0000 P   0  0  0  0  0  0  0  0  0  0  0  0
    0.4895   -5.3743    0.0000 O   0  0  0  0  0  0  0  0  0  0  0  0
    1.5000   -2.5981    0.0000 O   0  0  0  0  0  0  0  0  0  0  0  0
    0.7500   -1.2990    0.0000 C   0  0  0  0  0  0  0  0  0  0  0  0
    1.5000    0.0000    0.0000 C   0  0  0  0  0  0  0  0  0  0  0  0
    0.7500    1.2990    0.0000 C   0  0  0  0  0  0  0  0  0  0  0  0
   -0.7500    1.2990    0.0000 C   0  0  0  0  0  0  0  0  0  0  0  0
   -1.5000    0.0000    0.0000 C   0  0  0  0  0  0  0  0  0  0  0  0
   -0.7500   -1.2990    0.0000 C   0  0  0  0  0  0  0  0  0  0  0  0
   -1.5000   -2.5981    0.0000 C   0  0  0  0  0  0  0  0  0  0  0  0
   -3.0000   -2.5981    0.0000 C   0  0  0  0  0  0  0  0  0  0  0  0
   -3.7500   -3.8971    0.0000 C   0  0  0  0  0  0  0  0  0  0  0  0
   -3.0000   -5.1962    0.0000 C   0  0  0  0  0  0  0  0  0  0  0  0
   -1.5000   -5.1962    0.0000 C   0  0  0  0  0  0  0  0  0  0  0  0
   -0.7500   -3.8971    0.0000 C   0  0  0  0  0  0  0  0  0  0  0  0
    1.2709   -6.8515    0.0000 O   0  0  0  0  0  0  0  0  0  0  0  0
   -0.1386   -6.3385    0.0000 C   0  0  0  0  0  0  0  0  0  0  0  0
    5.4996   -8.3906    0.0000 C   0  0  0  0  0  0  0  0  0  0  0  0
    6.6486   -7.4264    0.0000 O   0  0  0  0  0  0  0  0  0  0  0  0
  1  2  1  0
  2  3  1  0
  3  4  1  0
  3  5  1  0
  5  6  1  0
  6  7  1  0
  7  8  2  0
  7  9  1  0
  9 10  1  0
 10 11  1  0
 11 12  1  0
 11 13  1  0
 13 14  1  0
 14 15  1  0
 15 16  1  0
 15 17  1  0
 17 18  1  0
  9 19  1  0
 19 20  2  0
 19 21  1  0
 21 22  1  0
 22 23  1  0
 23 24  1  0
 24 25  1  0
 25 26  2  0
 25 27  1  0
 27 28  1  0
 28 29  2  0
 29 30  1  0
 30 31  2  0
 31 32  1  0
 32 33  2  0
 33 34  1  0
 34 35  2  0
 35 36  1  0
 36 37  2  0
 37 38  1  0
 38 39  2  0
 23 40  1  0
 40 41  1  0
 21 42  1  0
 42 43  2  0
 42  6  1  0
 39 25  1  0
 33 28  1  0
 39 34  1  0
M  END
>  <Candidate_ID>  (164) 
CAND_R2_164

>  <Candidate_Name>  (164) 
DTB-OH-methyl-3

>  <Parent_Seed_ID>  (164) 
TRAIN_018

>  <Parent_Name>  (164) 
DTB

>  <Transformation_Code>  (164) 
OH_methyl

>  <Design_Family>  (164) 
P-N-B

>  <Preparation_Type>  (164) 
Additive

>  <Synthesis_Level>  (164) 
B

>  <Parent_Tanimoto_r3>  (164) 
0.8131868131868132

>  <Max_Train_Tanimoto_r3>  (164) 
0.8131868131868132

>  <Risk_Flags>  (164) 
none

$$$$
CAND_R2_165 | DTB-OH-methyl-all
     RDKit          2D

 45 48  0  0  0  0  0  0  0  0999 V2000
    9.1001  -13.8483    0.0000 C   0  0  0  0  0  0  0  0  0  0  0  0
    8.8396  -12.3711    0.0000 C   0  0  0  0  0  0  0  0  0  0  0  0
    7.4300  -11.8581    0.0000 C   0  0  0  0  0  0  0  0  0  0  0  0
    7.1696  -10.3809    0.0000 C   0  0  0  0  0  0  0  0  0  0  0  0
    5.7600   -9.8678    0.0000 N   0  0  0  0  0  0  0  0  0  0  0  0
    4.6110  -10.8320    0.0000 C   0  0  0  0  0  0  0  0  0  0  0  0
    4.8714  -12.3092    0.0000 O   0  0  0  0  0  0  0  0  0  0  0  0
    3.2014  -10.3190    0.0000 N   0  0  0  0  0  0  0  0  0  0  0  0
    2.0524  -11.2832    0.0000 C   0  0  0  0  0  0  0  0  0  0  0  0
    0.6428  -10.7701    0.0000 C   0  0  0  0  0  0  0  0  0  0  0  0
   -0.5062  -11.7343    0.0000 C   0  0  0  0  0  0  0  0  0  0  0  0
   -1.9158  -11.2213    0.0000 O   0  0  0  0  0  0  0  0  0  0  0  0
   -3.0648  -12.1855    0.0000 B   0  0  0  0  0  0  0  0  0  0  0  0
   -4.4744  -11.6724    0.0000 O   0  0  0  0  0  0  0  0  0  0  0  0
   -2.8044  -13.6627    0.0000 O   0  0  0  0  0  0  0  0  0  0  0  0
   -3.9534  -14.6269    0.0000 C   0  0  0  0  0  0  0  0  0  0  0  0
    0.3824   -9.2929    0.0000 O   0  0  0  0  0  0  0  0  0  0  0  0
   -1.0272   -8.7799    0.0000 C   0  0  0  0  0  0  0  0  0  0  0  0
    2.9410   -8.8418    0.0000 C   0  0  0  0  0  0  0  0  0  0  0  0
    1.5314   -8.3287    0.0000 O   0  0  0  0  0  0  0  0  0  0  0  0
    4.0900   -7.8776    0.0000 N   0  0  0  0  0  0  0  0  0  0  0  0
    3.8296   -6.4004    0.0000 C   0  0  0  0  0  0  0  0  0  0  0  0
    2.4200   -5.8874    0.0000 C   0  0  0  0  0  0  0  0  0  0  0  0
    2.1595   -4.4101    0.0000 C   0  0  0  0  0  0  0  0  0  0  0  0
    0.7500   -3.8971    0.0000 P   0  0  0  0  0  0  0  0  0  0  0  0
    0.4895   -5.3743    0.0000 O   0  0  0  0  0  0  0  0  0  0  0  0
    1.5000   -2.5981    0.0000 O   0  0  0  0  0  0  0  0  0  0  0  0
    0.7500   -1.2990    0.0000 C   0  0  0  0  0  0  0  0  0  0  0  0
    1.5000    0.0000    0.0000 C   0  0  0  0  0  0  0  0  0  0  0  0
    0.7500    1.2990    0.0000 C   0  0  0  0  0  0  0  0  0  0  0  0
   -0.7500    1.2990    0.0000 C   0  0  0  0  0  0  0  0  0  0  0  0
   -1.5000    0.0000    0.0000 C   0  0  0  0  0  0  0  0  0  0  0  0
   -0.7500   -1.2990    0.0000 C   0  0  0  0  0  0  0  0  0  0  0  0
   -1.5000   -2.5981    0.0000 C   0  0  0  0  0  0  0  0  0  0  0  0
   -3.0000   -2.5981    0.0000 C   0  0  0  0  0  0  0  0  0  0  0  0
   -3.7500   -3.8971    0.0000 C   0  0  0  0  0  0  0  0  0  0  0  0
   -3.0000   -5.1962    0.0000 C   0  0  0  0  0  0  0  0  0  0  0  0
   -1.5000   -5.1962    0.0000 C   0  0  0  0  0  0  0  0  0  0  0  0
   -0.7500   -3.8971    0.0000 C   0  0  0  0  0  0  0  0  0  0  0  0
    1.2709   -6.8515    0.0000 O   0  0  0  0  0  0  0  0  0  0  0  0
   -0.1386   -6.3385    0.0000 C   0  0  0  0  0  0  0  0  0  0  0  0
    5.4996   -8.3906    0.0000 C   0  0  0  0  0  0  0  0  0  0  0  0
    6.6486   -7.4264    0.0000 O   0  0  0  0  0  0  0  0  0  0  0  0
    6.2810  -12.8223    0.0000 O   0  0  0  0  0  0  0  0  0  0  0  0
    6.5415  -14.2995    0.0000 C   0  0  0  0  0  0  0  0  0  0  0  0
  1  2  1  0
  2  3  1  0
  3  4  1  0
  4  5  1  0
  5  6  1  0
  6  7  2  0
  6  8  1  0
  8  9  1  0
  9 10  1  0
 10 11  1  0
 11 12  1  0
 12 13  1  0
 13 14  1  0
 13 15  1  0
 15 16  1  0
 10 17  1  0
 17 18  1  0
  8 19  1  0
 19 20  2  0
 19 21  1  0
 21 22  1  0
 22 23  1  0
 23 24  1  0
 24 25  1  0
 25 26  2  0
 25 27  1  0
 27 28  1  0
 28 29  2  0
 29 30  1  0
 30 31  2  0
 31 32  1  0
 32 33  2  0
 33 34  1  0
 34 35  2  0
 35 36  1  0
 36 37  2  0
 37 38  1  0
 38 39  2  0
 23 40  1  0
 40 41  1  0
 21 42  1  0
 42 43  2  0
  3 44  1  0
 44 45  1  0
 42  5  1  0
 39 25  1  0
 33 28  1  0
 39 34  1  0
M  END
>  <Candidate_ID>  (165) 
CAND_R2_165

>  <Candidate_Name>  (165) 
DTB-OH-methyl-all

>  <Parent_Seed_ID>  (165) 
TRAIN_018

>  <Parent_Name>  (165) 
DTB

>  <Transformation_Code>  (165) 
OH_methyl_all

>  <Design_Family>  (165) 
P-N-B

>  <Preparation_Type>  (165) 
Additive

>  <Synthesis_Level>  (165) 
B

>  <Parent_Tanimoto_r3>  (165) 
0.6138613861386139

>  <Max_Train_Tanimoto_r3>  (165) 
0.6138613861386139

>  <Risk_Flags>  (165) 
large structural change from parent; candidate may be outside strict in-domain threshold

$$$$
CAND_R2_166 | DTB-OH-acetyl
     RDKit          2D

 45 48  0  0  0  0  0  0  0  0999 V2000
    9.1001  -13.8483    0.0000 C   0  0  0  0  0  0  0  0  0  0  0  0
    8.8396  -12.3711    0.0000 C   0  0  0  0  0  0  0  0  0  0  0  0
    7.4300  -11.8581    0.0000 C   0  0  0  0  0  0  0  0  0  0  0  0
    7.1696  -10.3809    0.0000 C   0  0  0  0  0  0  0  0  0  0  0  0
    5.7600   -9.8678    0.0000 N   0  0  0  0  0  0  0  0  0  0  0  0
    4.6110  -10.8320    0.0000 C   0  0  0  0  0  0  0  0  0  0  0  0
    4.8714  -12.3092    0.0000 O   0  0  0  0  0  0  0  0  0  0  0  0
    3.2014  -10.3190    0.0000 N   0  0  0  0  0  0  0  0  0  0  0  0
    2.0524  -11.2832    0.0000 C   0  0  0  0  0  0  0  0  0  0  0  0
    0.6428  -10.7701    0.0000 C   0  0  0  0  0  0  0  0  0  0  0  0
    0.3824   -9.2929    0.0000 O   0  0  0  0  0  0  0  0  0  0  0  0
   -0.5062  -11.7343    0.0000 C   0  0  0  0  0  0  0  0  0  0  0  0
   -1.9158  -11.2213    0.0000 O   0  0  0  0  0  0  0  0  0  0  0  0
   -3.0648  -12.1855    0.0000 B   0  0  0  0  0  0  0  0  0  0  0  0
   -4.4744  -11.6724    0.0000 O   0  0  0  0  0  0  0  0  0  0  0  0
   -2.8044  -13.6627    0.0000 O   0  0  0  0  0  0  0  0  0  0  0  0
   -3.9534  -14.6269    0.0000 C   0  0  0  0  0  0  0  0  0  0  0  0
    2.9410   -8.8418    0.0000 C   0  0  0  0  0  0  0  0  0  0  0  0
    1.5314   -8.3287    0.0000 O   0  0  0  0  0  0  0  0  0  0  0  0
    4.0900   -7.8776    0.0000 N   0  0  0  0  0  0  0  0  0  0  0  0
    3.8296   -6.4004    0.0000 C   0  0  0  0  0  0  0  0  0  0  0  0
    2.4200   -5.8874    0.0000 C   0  0  0  0  0  0  0  0  0  0  0  0
    1.2709   -6.8515    0.0000 O   0  0  0  0  0  0  0  0  0  0  0  0
    2.1595   -4.4101    0.0000 C   0  0  0  0  0  0  0  0  0  0  0  0
    0.7500   -3.8971    0.0000 P   0  0  0  0  0  0  0  0  0  0  0  0
    0.4895   -5.3743    0.0000 O   0  0  0  0  0  0  0  0  0  0  0  0
    1.5000   -2.5981    0.0000 O   0  0  0  0  0  0  0  0  0  0  0  0
    0.7500   -1.2990    0.0000 C   0  0  0  0  0  0  0  0  0  0  0  0
    1.5000    0.0000    0.0000 C   0  0  0  0  0  0  0  0  0  0  0  0
    0.7500    1.2990    0.0000 C   0  0  0  0  0  0  0  0  0  0  0  0
   -0.7500    1.2990    0.0000 C   0  0  0  0  0  0  0  0  0  0  0  0
   -1.5000    0.0000    0.0000 C   0  0  0  0  0  0  0  0  0  0  0  0
   -0.7500   -1.2990    0.0000 C   0  0  0  0  0  0  0  0  0  0  0  0
   -1.5000   -2.5981    0.0000 C   0  0  0  0  0  0  0  0  0  0  0  0
   -3.0000   -2.5981    0.0000 C   0  0  0  0  0  0  0  0  0  0  0  0
   -3.7500   -3.8971    0.0000 C   0  0  0  0  0  0  0  0  0  0  0  0
   -3.0000   -5.1962    0.0000 C   0  0  0  0  0  0  0  0  0  0  0  0
   -1.5000   -5.1962    0.0000 C   0  0  0  0  0  0  0  0  0  0  0  0
   -0.7500   -3.8971    0.0000 C   0  0  0  0  0  0  0  0  0  0  0  0
    5.4996   -8.3906    0.0000 C   0  0  0  0  0  0  0  0  0  0  0  0
    6.6486   -7.4264    0.0000 O   0  0  0  0  0  0  0  0  0  0  0  0
    6.2810  -12.8223    0.0000 O   0  0  0  0  0  0  0  0  0  0  0  0
    6.5415  -14.2995    0.0000 C   0  0  0  0  0  0  0  0  0  0  0  0
    5.3924  -15.2637    0.0000 C   0  0  0  0  0  0  0  0  0  0  0  0
    7.9510  -14.8125    0.0000 O   0  0  0  0  0  0  0  0  0  0  0  0
  1  2  1  0
  2  3  1  0
  3  4  1  0
  4  5  1  0
  5  6  1  0
  6  7  2  0
  6  8  1  0
  8  9  1  0
  9 10  1  0
 10 11  1  0
 10 12  1  0
 12 13  1  0
 13 14  1  0
 14 15  1  0
 14 16  1  0
 16 17  1  0
  8 18  1  0
 18 19  2  0
 18 20  1  0
 20 21  1  0
 21 22  1  0
 22 23  1  0
 22 24  1  0
 24 25  1  0
 25 26  2  0
 25 27  1  0
 27 28  1  0
 28 29  2  0
 29 30  1  0
 30 31  2  0
 31 32  1  0
 32 33  2  0
 33 34  1  0
 34 35  2  0
 35 36  1  0
 36 37  2  0
 37 38  1  0
 38 39  2  0
 20 40  1  0
 40 41  2  0
  3 42  1  0
 42 43  1  0
 43 44  1  0
 43 45  2  0
 40  5  1  0
 39 25  1  0
 33 28  1  0
 39 34  1  0
M  END
>  <Candidate_ID>  (166) 
CAND_R2_166

>  <Candidate_Name>  (166) 
DTB-OH-acetyl

>  <Parent_Seed_ID>  (166) 
TRAIN_018

>  <Parent_Name>  (166) 
DTB

>  <Transformation_Code>  (166) 
OH_acetyl

>  <Design_Family>  (166) 
P-N-B

>  <Preparation_Type>  (166) 
Additive

>  <Synthesis_Level>  (166) 
B

>  <Parent_Tanimoto_r3>  (166) 
0.8191489361702128

>  <Max_Train_Tanimoto_r3>  (166) 
0.8191489361702128

>  <Risk_Flags>  (166) 
none

$$$$
CAND_R2_167 | DTB-OH-acetyl-2
     RDKit          2D

 45 48  0  0  0  0  0  0  0  0999 V2000
   -1.9158  -11.2213    0.0000 C   0  0  0  0  0  0  0  0  0  0  0  0
   -0.5062  -11.7343    0.0000 C   0  0  0  0  0  0  0  0  0  0  0  0
    0.6428  -10.7701    0.0000 C   0  0  0  0  0  0  0  0  0  0  0  0
    0.3824   -9.2929    0.0000 O   0  0  0  0  0  0  0  0  0  0  0  0
    2.0524  -11.2832    0.0000 C   0  0  0  0  0  0  0  0  0  0  0  0
    3.2014  -10.3190    0.0000 N   0  0  0  0  0  0  0  0  0  0  0  0
    2.9410   -8.8418    0.0000 C   0  0  0  0  0  0  0  0  0  0  0  0
    1.5314   -8.3287    0.0000 O   0  0  0  0  0  0  0  0  0  0  0  0
    4.0900   -7.8776    0.0000 N   0  0  0  0  0  0  0  0  0  0  0  0
    3.8296   -6.4004    0.0000 C   0  0  0  0  0  0  0  0  0  0  0  0
    2.4200   -5.8874    0.0000 C   0  0  0  0  0  0  0  0  0  0  0  0
    1.2709   -6.8515    0.0000 O   0  0  0  0  0  0  0  0  0  0  0  0
    2.1595   -4.4101    0.0000 C   0  0  0  0  0  0  0  0  0  0  0  0
    0.7500   -3.8971    0.0000 P   0  0  0  0  0  0  0  0  0  0  0  0
    0.4895   -5.3743    0.0000 O   0  0  0  0  0  0  0  0  0  0  0  0
    1.5000   -2.5981    0.0000 O   0  0  0  0  0  0  0  0  0  0  0  0
    0.7500   -1.2990    0.0000 C   0  0  0  0  0  0  0  0  0  0  0  0
    1.5000    0.0000    0.0000 C   0  0  0  0  0  0  0  0  0  0  0  0
    0.7500    1.2990    0.0000 C   0  0  0  0  0  0  0  0  0  0  0  0
   -0.7500    1.2990    0.0000 C   0  0  0  0  0  0  0  0  0  0  0  0
   -1.5000    0.0000    0.0000 C   0  0  0  0  0  0  0  0  0  0  0  0
   -0.7500   -1.2990    0.0000 C   0  0  0  0  0  0  0  0  0  0  0  0
   -1.5000   -2.5981    0.0000 C   0  0  0  0  0  0  0  0  0  0  0  0
   -3.0000   -2.5981    0.0000 C   0  0  0  0  0  0  0  0  0  0  0  0
   -3.7500   -3.8971    0.0000 C   0  0  0  0  0  0  0  0  0  0  0  0
   -3.0000   -5.1962    0.0000 C   0  0  0  0  0  0  0  0  0  0  0  0
   -1.5000   -5.1962    0.0000 C   0  0  0  0  0  0  0  0  0  0  0  0
   -0.7500   -3.8971    0.0000 C   0  0  0  0  0  0  0  0  0  0  0  0
    5.4996   -8.3906    0.0000 C   0  0  0  0  0  0  0  0  0  0  0  0
    6.6486   -7.4264    0.0000 O   0  0  0  0  0  0  0  0  0  0  0  0
    5.7600   -9.8678    0.0000 N   0  0  0  0  0  0  0  0  0  0  0  0
    7.1696  -10.3809    0.0000 C   0  0  0  0  0  0  0  0  0  0  0  0
    7.4300  -11.8581    0.0000 C   0  0  0  0  0  0  0  0  0  0  0  0
    8.8396  -12.3711    0.0000 C   0  0  0  0  0  0  0  0  0  0  0  0
    9.1001  -13.8483    0.0000 O   0  0  0  0  0  0  0  0  0  0  0  0
   10.5096  -14.3614    0.0000 B   0  0  0  0  0  0  0  0  0  0  0  0
   10.7701  -15.8386    0.0000 O   0  0  0  0  0  0  0  0  0  0  0  0
   11.6587  -13.3972    0.0000 O   0  0  0  0  0  0  0  0  0  0  0  0
   13.0682  -13.9102    0.0000 C   0  0  0  0  0  0  0  0  0  0  0  0
    6.2810  -12.8223    0.0000 O   0  0  0  0  0  0  0  0  0  0  0  0
    6.5415  -14.2995    0.0000 C   0  0  0  0  0  0  0  0  0  0  0  0
    5.3924  -15.2637    0.0000 C   0  0  0  0  0  0  0  0  0  0  0  0
    7.9510  -14.8125    0.0000 O   0  0  0  0  0  0  0  0  0  0  0  0
    4.6110  -10.8320    0.0000 C   0  0  0  0  0  0  0  0  0  0  0  0
    4.8714  -12.3092    0.0000 O   0  0  0  0  0  0  0  0  0  0  0  0
  1  2  1  0
  2  3  1  0
  3  4  1  0
  3  5  1  0
  5  6  1  0
  6  7  1  0
  7  8  2  0
  7  9  1  0
  9 10  1  0
 10 11  1  0
 11 12  1  0
 11 13  1  0
 13 14  1  0
 14 15  2  0
 14 16  1  0
 16 17  1  0
 17 18  2  0
 18 19  1  0
 19 20  2  0
 20 21  1  0
 21 22  2  0
 22 23  1  0
 23 24  2  0
 24 25  1  0
 25 26  2  0
 26 27  1  0
 27 28  2  0
  9 29  1  0
 29 30  2  0
 29 31  1  0
 31 32  1  0
 32 33  1  0
 33 34  1  0
 34 35  1  0
 35 36  1  0
 36 37  1  0
 36 38  1  0
 38 39  1  0
 33 40  1  0
 40 41  1  0
 41 42  1  0
 41 43  2  0
 31 44  1  0
 44 45  2  0
 44  6  1  0
 28 14  1  0
 22 17  1  0
 28 23  1  0
M  END
>  <Candidate_ID>  (167) 
CAND_R2_167

>  <Candidate_Name>  (167) 
DTB-OH-acetyl-2

>  <Parent_Seed_ID>  (167) 
TRAIN_018

>  <Parent_Name>  (167) 
DTB

>  <Transformation_Code>  (167) 
OH_acetyl

>  <Design_Family>  (167) 
P-N-B

>  <Preparation_Type>  (167) 
Additive

>  <Synthesis_Level>  (167) 
B

>  <Parent_Tanimoto_r3>  (167) 
0.7708333333333334

>  <Max_Train_Tanimoto_r3>  (167) 
0.7708333333333334

>  <Risk_Flags>  (167) 
none

$$$$
CAND_R2_168 | DTB-OH-acetyl-3
     RDKit          2D

 45 48  0  0  0  0  0  0  0  0999 V2000
    9.1001  -13.8483    0.0000 C   0  0  0  0  0  0  0  0  0  0  0  0
    8.8396  -12.3711    0.0000 C   0  0  0  0  0  0  0  0  0  0  0  0
    7.4300  -11.8581    0.0000 C   0  0  0  0  0  0  0  0  0  0  0  0
    6.2810  -12.8223    0.0000 O   0  0  0  0  0  0  0  0  0  0  0  0
    7.1696  -10.3809    0.0000 C   0  0  0  0  0  0  0  0  0  0  0  0
    5.7600   -9.8678    0.0000 N   0  0  0  0  0  0  0  0  0  0  0  0
    4.6110  -10.8320    0.0000 C   0  0  0  0  0  0  0  0  0  0  0  0
    4.8714  -12.3092    0.0000 O   0  0  0  0  0  0  0  0  0  0  0  0
    3.2014  -10.3190    0.0000 N   0  0  0  0  0  0  0  0  0  0  0  0
    2.0524  -11.2832    0.0000 C   0  0  0  0  0  0  0  0  0  0  0  0
    0.6428  -10.7701    0.0000 C   0  0  0  0  0  0  0  0  0  0  0  0
    0.3824   -9.2929    0.0000 O   0  0  0  0  0  0  0  0  0  0  0  0
   -0.5062  -11.7343    0.0000 C   0  0  0  0  0  0  0  0  0  0  0  0
   -1.9158  -11.2213    0.0000 O   0  0  0  0  0  0  0  0  0  0  0  0
   -3.0648  -12.1855    0.0000 B   0  0  0  0  0  0  0  0  0  0  0  0
   -4.4744  -11.6724    0.0000 O   0  0  0  0  0  0  0  0  0  0  0  0
   -2.8044  -13.6627    0.0000 O   0  0  0  0  0  0  0  0  0  0  0  0
   -3.9534  -14.6269    0.0000 C   0  0  0  0  0  0  0  0  0  0  0  0
    2.9410   -8.8418    0.0000 C   0  0  0  0  0  0  0  0  0  0  0  0
    1.5314   -8.3287    0.0000 O   0  0  0  0  0  0  0  0  0  0  0  0
    4.0900   -7.8776    0.0000 N   0  0  0  0  0  0  0  0  0  0  0  0
    3.8296   -6.4004    0.0000 C   0  0  0  0  0  0  0  0  0  0  0  0
    2.4200   -5.8874    0.0000 C   0  0  0  0  0  0  0  0  0  0  0  0
    2.1595   -4.4101    0.0000 C   0  0  0  0  0  0  0  0  0  0  0  0
    0.7500   -3.8971    0.0000 P   0  0  0  0  0  0  0  0  0  0  0  0
    0.4895   -5.3743    0.0000 O   0  0  0  0  0  0  0  0  0  0  0  0
    1.5000   -2.5981    0.0000 O   0  0  0  0  0  0  0  0  0  0  0  0
    0.7500   -1.2990    0.0000 C   0  0  0  0  0  0  0  0  0  0  0  0
    1.5000    0.0000    0.0000 C   0  0  0  0  0  0  0  0  0  0  0  0
    0.7500    1.2990    0.0000 C   0  0  0  0  0  0  0  0  0  0  0  0
   -0.7500    1.2990    0.0000 C   0  0  0  0  0  0  0  0  0  0  0  0
   -1.5000    0.0000    0.0000 C   0  0  0  0  0  0  0  0  0  0  0  0
   -0.7500   -1.2990    0.0000 C   0  0  0  0  0  0  0  0  0  0  0  0
   -1.5000   -2.5981    0.0000 C   0  0  0  0  0  0  0  0  0  0  0  0
   -3.0000   -2.5981    0.0000 C   0  0  0  0  0  0  0  0  0  0  0  0
   -3.7500   -3.8971    0.0000 C   0  0  0  0  0  0  0  0  0  0  0  0
   -3.0000   -5.1962    0.0000 C   0  0  0  0  0  0  0  0  0  0  0  0
   -1.5000   -5.1962    0.0000 C   0  0  0  0  0  0  0  0  0  0  0  0
   -0.7500   -3.8971    0.0000 C   0  0  0  0  0  0  0  0  0  0  0  0
    1.2709   -6.8515    0.0000 O   0  0  0  0  0  0  0  0  0  0  0  0
   -0.1386   -6.3385    0.0000 C   0  0  0  0  0  0  0  0  0  0  0  0
   -1.2877   -7.3027    0.0000 C   0  0  0  0  0  0  0  0  0  0  0  0
   -0.3991   -4.8613    0.0000 O   0  0  0  0  0  0  0  0  0  0  0  0
    5.4996   -8.3906    0.0000 C   0  0  0  0  0  0  0  0  0  0  0  0
    6.6486   -7.4264    0.0000 O   0  0  0  0  0  0  0  0  0  0  0  0
  1  2  1  0
  2  3  1  0
  3  4  1  0
  3  5  1  0
  5  6  1  0
  6  7  1  0
  7  8  2  0
  7  9  1  0
  9 10  1  0
 10 11  1  0
 11 12  1  0
 11 13  1  0
 13 14  1  0
 14 15  1  0
 15 16  1  0
 15 17  1  0
 17 18  1  0
  9 19  1  0
 19 20  2  0
 19 21  1  0
 21 22  1  0
 22 23  1  0
 23 24  1  0
 24 25  1  0
 25 26  2  0
 25 27  1  0
 27 28  1  0
 28 29  2  0
 29 30  1  0
 30 31  2  0
 31 32  1  0
 32 33  2  0
 33 34  1  0
 34 35  2  0
 35 36  1  0
 36 37  2  0
 37 38  1  0
 38 39  2  0
 23 40  1  0
 40 41  1  0
 41 42  1  0
 41 43  2  0
 21 44  1  0
 44 45  2  0
 44  6  1  0
 39 25  1  0
 33 28  1  0
 39 34  1  0
M  END
>  <Candidate_ID>  (168) 
CAND_R2_168

>  <Candidate_Name>  (168) 
DTB-OH-acetyl-3

>  <Parent_Seed_ID>  (168) 
TRAIN_018

>  <Parent_Name>  (168) 
DTB

>  <Transformation_Code>  (168) 
OH_acetyl

>  <Design_Family>  (168) 
P-N-B

>  <Preparation_Type>  (168) 
Additive

>  <Synthesis_Level>  (168) 
B

>  <Parent_Tanimoto_r3>  (168) 
0.7708333333333334

>  <Max_Train_Tanimoto_r3>  (168) 
0.7708333333333334

>  <Risk_Flags>  (168) 
none

$$$$
CAND_R2_169 | DTB-OH-acetyl-all
     RDKit          2D

 51 54  0  0  0  0  0  0  0  0999 V2000
    9.1001  -13.8483    0.0000 C   0  0  0  0  0  0  0  0  0  0  0  0
    8.8396  -12.3711    0.0000 C   0  0  0  0  0  0  0  0  0  0  0  0
    7.4300  -11.8581    0.0000 C   0  0  0  0  0  0  0  0  0  0  0  0
    7.1696  -10.3809    0.0000 C   0  0  0  0  0  0  0  0  0  0  0  0
    5.7600   -9.8678    0.0000 N   0  0  0  0  0  0  0  0  0  0  0  0
    4.6110  -10.8320    0.0000 C   0  0  0  0  0  0  0  0  0  0  0  0
    4.8714  -12.3092    0.0000 O   0  0  0  0  0  0  0  0  0  0  0  0
    3.2014  -10.3190    0.0000 N   0  0  0  0  0  0  0  0  0  0  0  0
    2.0524  -11.2832    0.0000 C   0  0  0  0  0  0  0  0  0  0  0  0
    0.6428  -10.7701    0.0000 C   0  0  0  0  0  0  0  0  0  0  0  0
   -0.5062  -11.7343    0.0000 C   0  0  0  0  0  0  0  0  0  0  0  0
   -1.9158  -11.2213    0.0000 O   0  0  0  0  0  0  0  0  0  0  0  0
   -3.0648  -12.1855    0.0000 B   0  0  0  0  0  0  0  0  0  0  0  0
   -4.4744  -11.6724    0.0000 O   0  0  0  0  0  0  0  0  0  0  0  0
   -2.8044  -13.6627    0.0000 O   0  0  0  0  0  0  0  0  0  0  0  0
   -3.9534  -14.6269    0.0000 C   0  0  0  0  0  0  0  0  0  0  0  0
    0.3824   -9.2929    0.0000 O   0  0  0  0  0  0  0  0  0  0  0  0
   -1.0272   -8.7799    0.0000 C   0  0  0  0  0  0  0  0  0  0  0  0
   -1.2877   -7.3027    0.0000 C   0  0  0  0  0  0  0  0  0  0  0  0
   -2.1763   -9.7441    0.0000 O   0  0  0  0  0  0  0  0  0  0  0  0
    2.9410   -8.8418    0.0000 C   0  0  0  0  0  0  0  0  0  0  0  0
    1.5314   -8.3287    0.0000 O   0  0  0  0  0  0  0  0  0  0  0  0
    4.0900   -7.8776    0.0000 N   0  0  0  0  0  0  0  0  0  0  0  0
    3.8296   -6.4004    0.0000 C   0  0  0  0  0  0  0  0  0  0  0  0
    4.9786   -5.4362    0.0000 C   0  0  0  0  0  0  0  0  0  0  0  0
    4.7181   -3.9590    0.0000 C   0  0  0  0  0  0  0  0  0  0  0  0
    5.8672   -2.9948    0.0000 P   0  0  0  0  0  0  0  0  0  0  0  0
    6.6172   -4.2939    0.0000 O   0  0  0  0  0  0  0  0  0  0  0  0
    4.7181   -2.0306    0.0000 O   0  0  0  0  0  0  0  0  0  0  0  0
    4.9786   -0.5534    0.0000 C   0  0  0  0  0  0  0  0  0  0  0  0
    3.8296    0.4108    0.0000 C   0  0  0  0  0  0  0  0  0  0  0  0
    4.0900    1.8880    0.0000 C   0  0  0  0  0  0  0  0  0  0  0  0
    5.4996    2.4010    0.0000 C   0  0  0  0  0  0  0  0  0  0  0  0
    6.6486    1.4368    0.0000 C   0  0  0  0  0  0  0  0  0  0  0  0
    6.3882   -0.0404    0.0000 C   0  0  0  0  0  0  0  0  0  0  0  0
    7.5372   -1.0046    0.0000 C   0  0  0  0  0  0  0  0  0  0  0  0
    8.9468   -0.4915    0.0000 C   0  0  0  0  0  0  0  0  0  0  0  0
   10.0958   -1.4557    0.0000 C   0  0  0  0  0  0  0  0  0  0  0  0
    9.8354   -2.9329    0.0000 C   0  0  0  0  0  0  0  0  0  0  0  0
    8.4258   -3.4460    0.0000 C   0  0  0  0  0  0  0  0  0  0  0  0
    7.2768   -2.4818    0.0000 C   0  0  0  0  0  0  0  0  0  0  0  0
    6.3882   -5.9492    0.0000 O   0  0  0  0  0  0  0  0  0  0  0  0
    7.5372   -4.9851    0.0000 C   0  0  0  0  0  0  0  0  0  0  0  0
    8.9468   -5.4981    0.0000 C   0  0  0  0  0  0  0  0  0  0  0  0
    7.2768   -3.5078    0.0000 O   0  0  0  0  0  0  0  0  0  0  0  0
    5.4996   -8.3906    0.0000 C   0  0  0  0  0  0  0  0  0  0  0  0
    6.6486   -7.4264    0.0000 O   0  0  0  0  0  0  0  0  0  0  0  0
    6.2810  -12.8223    0.0000 O   0  0  0  0  0  0  0  0  0  0  0  0
    6.5415  -14.2995    0.0000 C   0  0  0  0  0  0  0  0  0  0  0  0
    5.3924  -15.2637    0.0000 C   0  0  0  0  0  0  0  0  0  0  0  0
    7.9510  -14.8125    0.0000 O   0  0  0  0  0  0  0  0  0  0  0  0
  1  2  1  0
  2  3  1  0
  3  4  1  0
  4  5  1  0
  5  6  1  0
  6  7  2  0
  6  8  1  0
  8  9  1  0
  9 10  1  0
 10 11  1  0
 11 12  1  0
 12 13  1  0
 13 14  1  0
 13 15  1  0
 15 16  1  0
 10 17  1  0
 17 18  1  0
 18 19  1  0
 18 20  2  0
  8 21  1  0
 21 22  2  0
 21 23  1  0
 23 24  1  0
 24 25  1  0
 25 26  1  0
 26 27  1  0
 27 28  2  0
 27 29  1  0
 29 30  1  0
 30 31  2  0
 31 32  1  0
 32 33  2  0
 33 34  1  0
 34 35  2  0
 35 36  1  0
 36 37  2  0
 37 38  1  0
 38 39  2  0
 39 40  1  0
 40 41  2  0
 25 42  1  0
 42 43  1  0
 43 44  1  0
 43 45  2  0
 23 46  1  0
 46 47  2  0
  3 48  1  0
 48 49  1  0
 49 50  1  0
 49 51  2  0
 46  5  1  0
 41 27  1  0
 35 30  1  0
 41 36  1  0
M  END
>  <Candidate_ID>  (169) 
CAND_R2_169

>  <Candidate_Name>  (169) 
DTB-OH-acetyl-all

>  <Parent_Seed_ID>  (169) 
TRAIN_018

>  <Parent_Name>  (169) 
DTB

>  <Transformation_Code>  (169) 
OH_acetyl_all

>  <Design_Family>  (169) 
P-N-B

>  <Preparation_Type>  (169) 
Additive

>  <Synthesis_Level>  (169) 
B

>  <Parent_Tanimoto_r3>  (169) 
0.5740740740740741

>  <Max_Train_Tanimoto_r3>  (169) 
0.5740740740740741

>  <Risk_Flags>  (169) 
large structural change from parent; candidate may be outside strict in-domain threshold

$$$$
CAND_R2_170 | DTB-OH-allyl
     RDKit          2D

 45 48  0  0  0  0  0  0  0  0999 V2000
    5.6529  -16.7409    0.0000 C   0  0  0  0  0  0  0  0  0  0  0  0
    5.3924  -15.2637    0.0000 C   0  0  0  0  0  0  0  0  0  0  0  0
    6.5415  -14.2995    0.0000 C   0  0  0  0  0  0  0  0  0  0  0  0
    6.2810  -12.8223    0.0000 O   0  0  0  0  0  0  0  0  0  0  0  0
    7.4300  -11.8581    0.0000 C   0  0  0  0  0  0  0  0  0  0  0  0
    8.8396  -12.3711    0.0000 C   0  0  0  0  0  0  0  0  0  0  0  0
    9.1001  -13.8483    0.0000 C   0  0  0  0  0  0  0  0  0  0  0  0
    7.1696  -10.3809    0.0000 C   0  0  0  0  0  0  0  0  0  0  0  0
    5.7600   -9.8678    0.0000 N   0  0  0  0  0  0  0  0  0  0  0  0
    4.6110  -10.8320    0.0000 C   0  0  0  0  0  0  0  0  0  0  0  0
    4.8714  -12.3092    0.0000 O   0  0  0  0  0  0  0  0  0  0  0  0
    3.2014  -10.3190    0.0000 N   0  0  0  0  0  0  0  0  0  0  0  0
    2.0524  -11.2832    0.0000 C   0  0  0  0  0  0  0  0  0  0  0  0
    0.6428  -10.7701    0.0000 C   0  0  0  0  0  0  0  0  0  0  0  0
    0.3824   -9.2929    0.0000 O   0  0  0  0  0  0  0  0  0  0  0  0
   -0.5062  -11.7343    0.0000 C   0  0  0  0  0  0  0  0  0  0  0  0
   -1.9158  -11.2213    0.0000 O   0  0  0  0  0  0  0  0  0  0  0  0
   -3.0648  -12.1855    0.0000 B   0  0  0  0  0  0  0  0  0  0  0  0
   -4.4744  -11.6724    0.0000 O   0  0  0  0  0  0  0  0  0  0  0  0
   -2.8044  -13.6627    0.0000 O   0  0  0  0  0  0  0  0  0  0  0  0
   -3.9534  -14.6269    0.0000 C   0  0  0  0  0  0  0  0  0  0  0  0
    2.9410   -8.8418    0.0000 C   0  0  0  0  0  0  0  0  0  0  0  0
    1.5314   -8.3287    0.0000 O   0  0  0  0  0  0  0  0  0  0  0  0
    4.0900   -7.8776    0.0000 N   0  0  0  0  0  0  0  0  0  0  0  0
    3.8296   -6.4004    0.0000 C   0  0  0  0  0  0  0  0  0  0  0  0
    2.4200   -5.8874    0.0000 C   0  0  0  0  0  0  0  0  0  0  0  0
    1.2709   -6.8515    0.0000 O   0  0  0  0  0  0  0  0  0  0  0  0
    2.1595   -4.4101    0.0000 C   0  0  0  0  0  0  0  0  0  0  0  0
    0.7500   -3.8971    0.0000 P   0  0  0  0  0  0  0  0  0  0  0  0
    0.4895   -5.3743    0.0000 O   0  0  0  0  0  0  0  0  0  0  0  0
    1.5000   -2.5981    0.0000 O   0  0  0  0  0  0  0  0  0  0  0  0
    0.7500   -1.2990    0.0000 C   0  0  0  0  0  0  0  0  0  0  0  0
    1.5000    0.0000    0.0000 C   0  0  0  0  0  0  0  0  0  0  0  0
    0.7500    1.2990    0.0000 C   0  0  0  0  0  0  0  0  0  0  0  0
   -0.7500    1.2990    0.0000 C   0  0  0  0  0  0  0  0  0  0  0  0
   -1.5000    0.0000    0.0000 C   0  0  0  0  0  0  0  0  0  0  0  0
   -0.7500   -1.2990    0.0000 C   0  0  0  0  0  0  0  0  0  0  0  0
   -1.5000   -2.5981    0.0000 C   0  0  0  0  0  0  0  0  0  0  0  0
   -3.0000   -2.5981    0.0000 C   0  0  0  0  0  0  0  0  0  0  0  0
   -3.7500   -3.8971    0.0000 C   0  0  0  0  0  0  0  0  0  0  0  0
   -3.0000   -5.1962    0.0000 C   0  0  0  0  0  0  0  0  0  0  0  0
   -1.5000   -5.1962    0.0000 C   0  0  0  0  0  0  0  0  0  0  0  0
   -0.7500   -3.8971    0.0000 C   0  0  0  0  0  0  0  0  0  0  0  0
    5.4996   -8.3906    0.0000 C   0  0  0  0  0  0  0  0  0  0  0  0
    6.6486   -7.4264    0.0000 O   0  0  0  0  0  0  0  0  0  0  0  0
  1  2  2  0
  2  3  1  0
  3  4  1  0
  4  5  1  0
  5  6  1  0
  6  7  1  0
  5  8  1  0
  8  9  1  0
  9 10  1  0
 10 11  2  0
 10 12  1  0
 12 13  1  0
 13 14  1  0
 14 15  1  0
 14 16  1  0
 16 17  1  0
 17 18  1  0
 18 19  1  0
 18 20  1  0
 20 21  1  0
 12 22  1  0
 22 23  2  0
 22 24  1  0
 24 25  1  0
 25 26  1  0
 26 27  1  0
 26 28  1  0
 28 29  1  0
 29 30  2  0
 29 31  1  0
 31 32  1  0
 32 33  2  0
 33 34  1  0
 34 35  2  0
 35 36  1  0
 36 37  2  0
 37 38  1  0
 38 39  2  0
 39 40  1  0
 40 41  2  0
 41 42  1  0
 42 43  2  0
 24 44  1  0
 44 45  2  0
 44  9  1  0
 43 29  1  0
 37 32  1  0
 43 38  1  0
M  END
>  <Candidate_ID>  (170) 
CAND_R2_170

>  <Candidate_Name>  (170) 
DTB-OH-allyl

>  <Parent_Seed_ID>  (170) 
TRAIN_018

>  <Parent_Name>  (170) 
DTB

>  <Transformation_Code>  (170) 
OH_allyl

>  <Design_Family>  (170) 
P-N-B

>  <Preparation_Type>  (170) 
Additive

>  <Synthesis_Level>  (170) 
B

>  <Parent_Tanimoto_r3>  (170) 
0.7857142857142857

>  <Max_Train_Tanimoto_r3>  (170) 
0.7857142857142857

>  <Risk_Flags>  (170) 
none

$$$$
CAND_R2_171 | DTB-OH-allyl-2
     RDKit          2D

 45 48  0  0  0  0  0  0  0  0999 V2000
    5.6529  -16.7409    0.0000 C   0  0  0  0  0  0  0  0  0  0  0  0
    5.3924  -15.2637    0.0000 C   0  0  0  0  0  0  0  0  0  0  0  0
    6.5415  -14.2995    0.0000 C   0  0  0  0  0  0  0  0  0  0  0  0
    6.2810  -12.8223    0.0000 O   0  0  0  0  0  0  0  0  0  0  0  0
    7.4300  -11.8581    0.0000 C   0  0  0  0  0  0  0  0  0  0  0  0
    8.8396  -12.3711    0.0000 C   0  0  0  0  0  0  0  0  0  0  0  0
    9.1001  -13.8483    0.0000 O   0  0  0  0  0  0  0  0  0  0  0  0
   10.5096  -14.3614    0.0000 B   0  0  0  0  0  0  0  0  0  0  0  0
   10.7701  -15.8386    0.0000 O   0  0  0  0  0  0  0  0  0  0  0  0
   11.6587  -13.3972    0.0000 O   0  0  0  0  0  0  0  0  0  0  0  0
   13.0682  -13.9102    0.0000 C   0  0  0  0  0  0  0  0  0  0  0  0
    7.1696  -10.3809    0.0000 C   0  0  0  0  0  0  0  0  0  0  0  0
    5.7600   -9.8678    0.0000 N   0  0  0  0  0  0  0  0  0  0  0  0
    4.6110  -10.8320    0.0000 C   0  0  0  0  0  0  0  0  0  0  0  0
    4.8714  -12.3092    0.0000 O   0  0  0  0  0  0  0  0  0  0  0  0
    3.2014  -10.3190    0.0000 N   0  0  0  0  0  0  0  0  0  0  0  0
    2.0524  -11.2832    0.0000 C   0  0  0  0  0  0  0  0  0  0  0  0
    0.6428  -10.7701    0.0000 C   0  0  0  0  0  0  0  0  0  0  0  0
    0.3824   -9.2929    0.0000 O   0  0  0  0  0  0  0  0  0  0  0  0
   -0.5062  -11.7343    0.0000 C   0  0  0  0  0  0  0  0  0  0  0  0
   -1.9158  -11.2213    0.0000 C   0  0  0  0  0  0  0  0  0  0  0  0
    2.9410   -8.8418    0.0000 C   0  0  0  0  0  0  0  0  0  0  0  0
    1.5314   -8.3287    0.0000 O   0  0  0  0  0  0  0  0  0  0  0  0
    4.0900   -7.8776    0.0000 N   0  0  0  0  0  0  0  0  0  0  0  0
    3.8296   -6.4004    0.0000 C   0  0  0  0  0  0  0  0  0  0  0  0
    2.4200   -5.8874    0.0000 C   0  0  0  0  0  0  0  0  0  0  0  0
    1.2709   -6.8515    0.0000 O   0  0  0  0  0  0  0  0  0  0  0  0
    2.1595   -4.4101    0.0000 C   0  0  0  0  0  0  0  0  0  0  0  0
    0.7500   -3.8971    0.0000 P   0  0  0  0  0  0  0  0  0  0  0  0
    0.4895   -5.3743    0.0000 O   0  0  0  0  0  0  0  0  0  0  0  0
    1.5000   -2.5981    0.0000 O   0  0  0  0  0  0  0  0  0  0  0  0
    0.7500   -1.2990    0.0000 C   0  0  0  0  0  0  0  0  0  0  0  0
    1.5000    0.0000    0.0000 C   0  0  0  0  0  0  0  0  0  0  0  0
    0.7500    1.2990    0.0000 C   0  0  0  0  0  0  0  0  0  0  0  0
   -0.7500    1.2990    0.0000 C   0  0  0  0  0  0  0  0  0  0  0  0
   -1.5000    0.0000    0.0000 C   0  0  0  0  0  0  0  0  0  0  0  0
   -0.7500   -1.2990    0.0000 C   0  0  0  0  0  0  0  0  0  0  0  0
   -1.5000   -2.5981    0.0000 C   0  0  0  0  0  0  0  0  0  0  0  0
   -3.0000   -2.5981    0.0000 C   0  0  0  0  0  0  0  0  0  0  0  0
   -3.7500   -3.8971    0.0000 C   0  0  0  0  0  0  0  0  0  0  0  0
   -3.0000   -5.1962    0.0000 C   0  0  0  0  0  0  0  0  0  0  0  0
   -1.5000   -5.1962    0.0000 C   0  0  0  0  0  0  0  0  0  0  0  0
   -0.7500   -3.8971    0.0000 C   0  0  0  0  0  0  0  0  0  0  0  0
    5.4996   -8.3906    0.0000 C   0  0  0  0  0  0  0  0  0  0  0  0
    6.6486   -7.4264    0.0000 O   0  0  0  0  0  0  0  0  0  0  0  0
  1  2  2  0
  2  3  1  0
  3  4  1  0
  4  5  1  0
  5  6  1  0
  6  7  1  0
  7  8  1  0
  8  9  1  0
  8 10  1  0
 10 11  1  0
  5 12  1  0
 12 13  1  0
 13 14  1  0
 14 15  2  0
 14 16  1  0
 16 17  1  0
 17 18  1  0
 18 19  1  0
 18 20  1  0
 20 21  1  0
 16 22  1  0
 22 23  2  0
 22 24  1  0
 24 25  1  0
 25 26  1  0
 26 27  1  0
 26 28  1  0
 28 29  1  0
 29 30  2  0
 29 31  1  0
 31 32  1  0
 32 33  2  0
 33 34  1  0
 34 35  2  0
 35 36  1  0
 36 37  2  0
 37 38  1  0
 38 39  2  0
 39 40  1  0
 40 41  2  0
 41 42  1  0
 42 43  2  0
 24 44  1  0
 44 45  2  0
 44 13  1  0
 43 29  1  0
 37 32  1  0
 43 38  1  0
M  END
>  <Candidate_ID>  (171) 
CAND_R2_171

>  <Candidate_Name>  (171) 
DTB-OH-allyl-2

>  <Parent_Seed_ID>  (171) 
TRAIN_018

>  <Parent_Name>  (171) 
DTB

>  <Transformation_Code>  (171) 
OH_allyl

>  <Design_Family>  (171) 
P-N-B

>  <Preparation_Type>  (171) 
Additive

>  <Synthesis_Level>  (171) 
B

>  <Parent_Tanimoto_r3>  (171) 
0.7474747474747475

>  <Max_Train_Tanimoto_r3>  (171) 
0.7474747474747475

>  <Risk_Flags>  (171) 
none

$$$$
CAND_R2_172 | DTB-OH-allyl-3
     RDKit          2D

 45 48  0  0  0  0  0  0  0  0999 V2000
    4.1972   -1.0046    0.0000 C   0  0  0  0  0  0  0  0  0  0  0  0
    3.0481   -1.9688    0.0000 C   0  0  0  0  0  0  0  0  0  0  0  0
    3.3086   -3.4460    0.0000 C   0  0  0  0  0  0  0  0  0  0  0  0
    2.1595   -4.4101    0.0000 O   0  0  0  0  0  0  0  0  0  0  0  0
    2.4200   -5.8874    0.0000 C   0  0  0  0  0  0  0  0  0  0  0  0
    3.8296   -6.4004    0.0000 C   0  0  0  0  0  0  0  0  0  0  0  0
    4.0900   -7.8776    0.0000 N   0  0  0  0  0  0  0  0  0  0  0  0
    2.9410   -8.8418    0.0000 C   0  0  0  0  0  0  0  0  0  0  0  0
    1.5314   -8.3287    0.0000 O   0  0  0  0  0  0  0  0  0  0  0  0
    3.2014  -10.3190    0.0000 N   0  0  0  0  0  0  0  0  0  0  0  0
    2.0524  -11.2832    0.0000 C   0  0  0  0  0  0  0  0  0  0  0  0
    2.3128  -12.7604    0.0000 C   0  0  0  0  0  0  0  0  0  0  0  0
    3.7224  -13.2734    0.0000 O   0  0  0  0  0  0  0  0  0  0  0  0
    1.1638  -13.7246    0.0000 C   0  0  0  0  0  0  0  0  0  0  0  0
    1.4242  -15.2018    0.0000 C   0  0  0  0  0  0  0  0  0  0  0  0
    4.6110  -10.8320    0.0000 C   0  0  0  0  0  0  0  0  0  0  0  0
    4.8714  -12.3092    0.0000 O   0  0  0  0  0  0  0  0  0  0  0  0
    5.7600   -9.8678    0.0000 N   0  0  0  0  0  0  0  0  0  0  0  0
    7.1696  -10.3809    0.0000 C   0  0  0  0  0  0  0  0  0  0  0  0
    8.3186   -9.4167    0.0000 C   0  0  0  0  0  0  0  0  0  0  0  0
    8.0582   -7.9395    0.0000 O   0  0  0  0  0  0  0  0  0  0  0  0
    9.7282   -9.9297    0.0000 C   0  0  0  0  0  0  0  0  0  0  0  0
   10.8772   -8.9655    0.0000 O   0  0  0  0  0  0  0  0  0  0  0  0
   12.2868   -9.4786    0.0000 B   0  0  0  0  0  0  0  0  0  0  0  0
   13.4359   -8.5144    0.0000 O   0  0  0  0  0  0  0  0  0  0  0  0
   12.5473  -10.9558    0.0000 O   0  0  0  0  0  0  0  0  0  0  0  0
   13.9568  -11.4688    0.0000 C   0  0  0  0  0  0  0  0  0  0  0  0
    5.4996   -8.3906    0.0000 C   0  0  0  0  0  0  0  0  0  0  0  0
    6.6486   -7.4264    0.0000 O   0  0  0  0  0  0  0  0  0  0  0  0
    1.2709   -6.8515    0.0000 C   0  0  0  0  0  0  0  0  0  0  0  0
   -0.1386   -6.3385    0.0000 P   0  0  0  0  0  0  0  0  0  0  0  0
    0.6114   -5.0395    0.0000 O   0  0  0  0  0  0  0  0  0  0  0  0
   -0.3991   -7.8157    0.0000 O   0  0  0  0  0  0  0  0  0  0  0  0
   -1.8086   -8.3287    0.0000 C   0  0  0  0  0  0  0  0  0  0  0  0
   -2.0691   -9.8060    0.0000 C   0  0  0  0  0  0  0  0  0  0  0  0
   -3.4786  -10.3190    0.0000 C   0  0  0  0  0  0  0  0  0  0  0  0
   -4.6277   -9.3548    0.0000 C   0  0  0  0  0  0  0  0  0  0  0  0
   -4.3672   -7.8776    0.0000 C   0  0  0  0  0  0  0  0  0  0  0  0
   -2.9577   -7.3646    0.0000 C   0  0  0  0  0  0  0  0  0  0  0  0
   -2.6972   -5.8874    0.0000 C   0  0  0  0  0  0  0  0  0  0  0  0
   -3.8463   -4.9232    0.0000 C   0  0  0  0  0  0  0  0  0  0  0  0
   -3.5858   -3.4460    0.0000 C   0  0  0  0  0  0  0  0  0  0  0  0
   -2.1763   -2.9329    0.0000 C   0  0  0  0  0  0  0  0  0  0  0  0
   -1.0272   -3.8971    0.0000 C   0  0  0  0  0  0  0  0  0  0  0  0
   -1.2877   -5.3743    0.0000 C   0  0  0  0  0  0  0  0  0  0  0  0
  1  2  2  0
  2  3  1  0
  3  4  1  0
  4  5  1  0
  5  6  1  0
  6  7  1  0
  7  8  1  0
  8  9  2  0
  8 10  1  0
 10 11  1  0
 11 12  1  0
 12 13  1  0
 12 14  1  0
 14 15  1  0
 10 16  1  0
 16 17  2  0
 16 18  1  0
 18 19  1  0
 19 20  1  0
 20 21  1  0
 20 22  1  0
 22 23  1  0
 23 24  1  0
 24 25  1  0
 24 26  1  0
 26 27  1  0
 18 28  1  0
 28 29  2  0
  5 30  1  0
 30 31  1  0
 31 32  2  0
 31 33  1  0
 33 34  1  0
 34 35  2  0
 35 36  1  0
 36 37  2  0
 37 38  1  0
 38 39  2  0
 39 40  1  0
 40 41  2  0
 41 42  1  0
 42 43  2  0
 43 44  1  0
 44 45  2  0
 28  7  1  0
 45 31  1  0
 39 34  1  0
 45 40  1  0
M  END
>  <Candidate_ID>  (172) 
CAND_R2_172

>  <Candidate_Name>  (172) 
DTB-OH-allyl-3

>  <Parent_Seed_ID>  (172) 
TRAIN_018

>  <Parent_Name>  (172) 
DTB

>  <Transformation_Code>  (172) 
OH_allyl

>  <Design_Family>  (172) 
P-N-B

>  <Preparation_Type>  (172) 
Additive

>  <Synthesis_Level>  (172) 
B

>  <Parent_Tanimoto_r3>  (172) 
0.74

>  <Max_Train_Tanimoto_r3>  (172) 
0.74

>  <Risk_Flags>  (172) 
none

$$$$
CAND_R2_173 | DTB-OH-allyl-all
     RDKit          2D

 51 54  0  0  0  0  0  0  0  0999 V2000
    5.6529  -16.7409    0.0000 C   0  0  0  0  0  0  0  0  0  0  0  0
    5.3924  -15.2637    0.0000 C   0  0  0  0  0  0  0  0  0  0  0  0
    6.5415  -14.2995    0.0000 C   0  0  0  0  0  0  0  0  0  0  0  0
    6.2810  -12.8223    0.0000 O   0  0  0  0  0  0  0  0  0  0  0  0
    7.4300  -11.8581    0.0000 C   0  0  0  0  0  0  0  0  0  0  0  0
    8.8396  -12.3711    0.0000 C   0  0  0  0  0  0  0  0  0  0  0  0
    9.1001  -13.8483    0.0000 C   0  0  0  0  0  0  0  0  0  0  0  0
    7.1696  -10.3809    0.0000 C   0  0  0  0  0  0  0  0  0  0  0  0
    5.7600   -9.8678    0.0000 N   0  0  0  0  0  0  0  0  0  0  0  0
    4.6110  -10.8320    0.0000 C   0  0  0  0  0  0  0  0  0  0  0  0
    4.8714  -12.3092    0.0000 O   0  0  0  0  0  0  0  0  0  0  0  0
    3.2014  -10.3190    0.0000 N   0  0  0  0  0  0  0  0  0  0  0  0
    2.0524  -11.2832    0.0000 C   0  0  0  0  0  0  0  0  0  0  0  0
    0.6428  -10.7701    0.0000 C   0  0  0  0  0  0  0  0  0  0  0  0
   -0.5062  -11.7343    0.0000 C   0  0  0  0  0  0  0  0  0  0  0  0
   -1.9158  -11.2213    0.0000 O   0  0  0  0  0  0  0  0  0  0  0  0
   -3.0648  -12.1855    0.0000 B   0  0  0  0  0  0  0  0  0  0  0  0
   -4.4744  -11.6724    0.0000 O   0  0  0  0  0  0  0  0  0  0  0  0
   -2.8044  -13.6627    0.0000 O   0  0  0  0  0  0  0  0  0  0  0  0
   -3.9534  -14.6269    0.0000 C   0  0  0  0  0  0  0  0  0  0  0  0
    0.3824   -9.2929    0.0000 O   0  0  0  0  0  0  0  0  0  0  0  0
   -1.0272   -8.7799    0.0000 C   0  0  0  0  0  0  0  0  0  0  0  0
   -1.2877   -7.3027    0.0000 C   0  0  0  0  0  0  0  0  0  0  0  0
   -2.6972   -6.7897    0.0000 C   0  0  0  0  0  0  0  0  0  0  0  0
    2.9410   -8.8418    0.0000 C   0  0  0  0  0  0  0  0  0  0  0  0
    1.5314   -8.3287    0.0000 O   0  0  0  0  0  0  0  0  0  0  0  0
    4.0900   -7.8776    0.0000 N   0  0  0  0  0  0  0  0  0  0  0  0
    3.8296   -6.4004    0.0000 C   0  0  0  0  0  0  0  0  0  0  0  0
    2.4200   -5.8874    0.0000 C   0  0  0  0  0  0  0  0  0  0  0  0
    2.1595   -4.4101    0.0000 C   0  0  0  0  0  0  0  0  0  0  0  0
    3.3086   -3.4460    0.0000 P   0  0  0  0  0  0  0  0  0  0  0  0
    4.0586   -4.7450    0.0000 O   0  0  0  0  0  0  0  0  0  0  0  0
    2.1595   -2.4818    0.0000 O   0  0  0  0  0  0  0  0  0  0  0  0
    2.4200   -1.0046    0.0000 C   0  0  0  0  0  0  0  0  0  0  0  0
    1.2709   -0.0404    0.0000 C   0  0  0  0  0  0  0  0  0  0  0  0
    1.5314    1.4368    0.0000 C   0  0  0  0  0  0  0  0  0  0  0  0
    2.9410    1.9499    0.0000 C   0  0  0  0  0  0  0  0  0  0  0  0
    4.0900    0.9857    0.0000 C   0  0  0  0  0  0  0  0  0  0  0  0
    3.8296   -0.4915    0.0000 C   0  0  0  0  0  0  0  0  0  0  0  0
    4.9786   -1.4557    0.0000 C   0  0  0  0  0  0  0  0  0  0  0  0
    6.3882   -0.9427    0.0000 C   0  0  0  0  0  0  0  0  0  0  0  0
    7.5372   -1.9069    0.0000 C   0  0  0  0  0  0  0  0  0  0  0  0
    7.2768   -3.3841    0.0000 C   0  0  0  0  0  0  0  0  0  0  0  0
    5.8672   -3.8971    0.0000 C   0  0  0  0  0  0  0  0  0  0  0  0
    4.7181   -2.9329    0.0000 C   0  0  0  0  0  0  0  0  0  0  0  0
    1.2709   -6.8515    0.0000 O   0  0  0  0  0  0  0  0  0  0  0  0
   -0.1386   -6.3385    0.0000 C   0  0  0  0  0  0  0  0  0  0  0  0
   -0.3991   -4.8613    0.0000 C   0  0  0  0  0  0  0  0  0  0  0  0
   -1.8086   -4.3483    0.0000 C   0  0  0  0  0  0  0  0  0  0  0  0
    5.4996   -8.3906    0.0000 C   0  0  0  0  0  0  0  0  0  0  0  0
    6.6486   -7.4264    0.0000 O   0  0  0  0  0  0  0  0  0  0  0  0
  1  2  2  0
  2  3  1  0
  3  4  1  0
  4  5  1  0
  5  6  1  0
  6  7  1  0
  5  8  1  0
  8  9  1  0
  9 10  1  0
 10 11  2  0
 10 12  1  0
 12 13  1  0
 13 14  1  0
 14 15  1  0
 15 16  1  0
 16 17  1  0
 17 18  1  0
 17 19  1  0
 19 20  1  0
 14 21  1  0
 21 22  1  0
 22 23  1  0
 23 24  2  0
 12 25  1  0
 25 26  2  0
 25 27  1  0
 27 28  1  0
 28 29  1  0
 29 30  1  0
 30 31  1  0
 31 32  2  0
 31 33  1  0
 33 34  1  0
 34 35  2  0
 35 36  1  0
 36 37  2  0
 37 38  1  0
 38 39  2  0
 39 40  1  0
 40 41  2  0
 41 42  1  0
 42 43  2  0
 43 44  1  0
 44 45  2  0
 29 46  1  0
 46 47  1  0
 47 48  1  0
 48 49  2  0
 27 50  1  0
 50 51  2  0
 50  9  1  0
 45 31  1  0
 39 34  1  0
 45 40  1  0
M  END
>  <Candidate_ID>  (173) 
CAND_R2_173

>  <Candidate_Name>  (173) 
DTB-OH-allyl-all

>  <Parent_Seed_ID>  (173) 
TRAIN_018

>  <Parent_Name>  (173) 
DTB

>  <Transformation_Code>  (173) 
OH_allyl_all

>  <Design_Family>  (173) 
P-N-B

>  <Preparation_Type>  (173) 
Additive

>  <Synthesis_Level>  (173) 
B

>  <Parent_Tanimoto_r3>  (173) 
0.5675675675675675

>  <Max_Train_Tanimoto_r3>  (173) 
0.5675675675675675

>  <Risk_Flags>  (173) 
large structural change from parent; candidate may be outside strict in-domain threshold

$$$$
CAND_R2_174 | DSD-amino
     RDKit          2D

 64 73  0  0  0  0  0  0  0  0999 V2000
   20.4835  -11.0795    0.0000 N   0  0  0  0  0  0  0  0  0  0  0  0
   19.0740  -10.5665    0.0000 C   0  0  0  0  0  0  0  0  0  0  0  0
   17.9249  -11.5307    0.0000 C   0  0  0  0  0  0  0  0  0  0  0  0
   16.5154  -11.0177    0.0000 C   0  0  0  0  0  0  0  0  0  0  0  0
   16.2549   -9.5404    0.0000 C   0  0  0  0  0  0  0  0  0  0  0  0
   14.8454   -9.0274    0.0000 C   0  0  0  0  0  0  0  0  0  0  0  0
   14.5849   -7.5502    0.0000 N   0  0  0  0  0  0  0  0  0  0  0  0
   13.1754   -7.0372    0.0000 C   0  0  0  0  0  0  0  0  0  0  0  0
   12.9149   -5.5600    0.0000 C   0  0  0  0  0  0  0  0  0  0  0  0
   11.5054   -5.0469    0.0000 C   0  0  0  0  0  0  0  0  0  0  0  0
   10.3563   -6.0111    0.0000 C   0  0  0  0  0  0  0  0  0  0  0  0
    8.9468   -5.4981    0.0000 S   0  0  0  0  0  0  0  0  0  0  0  0
    8.4337   -6.9076    0.0000 O   0  0  0  0  0  0  0  0  0  0  0  0
    9.4598   -4.0885    0.0000 O   0  0  0  0  0  0  0  0  0  0  0  0
    7.5372   -4.9851    0.0000 C   0  0  0  0  0  0  0  0  0  0  0  0
    7.2768   -3.5078    0.0000 C   0  0  0  0  0  0  0  0  0  0  0  0
    5.8672   -2.9948    0.0000 C   0  0  0  0  0  0  0  0  0  0  0  0
    4.7181   -3.9590    0.0000 C   0  0  0  0  0  0  0  0  0  0  0  0
    3.3086   -3.4460    0.0000 N   0  0  0  0  0  0  0  0  0  0  0  0
    3.0481   -1.9688    0.0000 C   0  0  0  0  0  0  0  0  0  0  0  0
    4.1972   -1.0046    0.0000 C   0  0  0  0  0  0  0  0  0  0  0  0
    5.6067   -1.5176    0.0000 C   0  0  0  0  0  0  0  0  0  0  0  0
    6.7558   -0.5534    0.0000 C   0  0  0  0  0  0  0  0  0  0  0  0
    6.4953    0.9238    0.0000 C   0  0  0  0  0  0  0  0  0  0  0  0
    5.0858    1.4368    0.0000 C   0  0  0  0  0  0  0  0  0  0  0  0
    3.9367    0.4726    0.0000 C   0  0  0  0  0  0  0  0  0  0  0  0
    2.5272    0.9857    0.0000 O   0  0  0  0  0  0  0  0  0  0  0  0
    1.6386   -1.4557    0.0000 P   0  0  0  0  0  0  0  0  0  0  0  0
    2.3886   -0.1567    0.0000 O   0  0  0  0  0  0  0  0  0  0  0  0
    1.3781   -2.9329    0.0000 O   0  0  0  0  0  0  0  0  0  0  0  0
   -0.0314   -3.4460    0.0000 C   0  0  0  0  0  0  0  0  0  0  0  0
   -0.2919   -4.9232    0.0000 C   0  0  0  0  0  0  0  0  0  0  0  0
   -1.7014   -5.4362    0.0000 C   0  0  0  0  0  0  0  0  0  0  0  0
   -2.8505   -4.4720    0.0000 C   0  0  0  0  0  0  0  0  0  0  0  0
   -2.5900   -2.9948    0.0000 C   0  0  0  0  0  0  0  0  0  0  0  0
   -1.1805   -2.4818    0.0000 C   0  0  0  0  0  0  0  0  0  0  0  0
   -0.9200   -1.0046    0.0000 C   0  0  0  0  0  0  0  0  0  0  0  0
   -2.0691   -0.0404    0.0000 C   0  0  0  0  0  0  0  0  0  0  0  0
   -1.8086    1.4368    0.0000 C   0  0  0  0  0  0  0  0  0  0  0  0
   -0.3991    1.9499    0.0000 C   0  0  0  0  0  0  0  0  0  0  0  0
    0.7500    0.9857    0.0000 C   0  0  0  0  0  0  0  0  0  0  0  0
    0.4895   -0.4915    0.0000 C   0  0  0  0  0  0  0  0  0  0  0  0
    4.9786   -5.4362    0.0000 C   0  0  0  0  0  0  0  0  0  0  0  0
    6.3882   -5.9492    0.0000 C   0  0  0  0  0  0  0  0  0  0  0  0
   10.6168   -7.4883    0.0000 C   0  0  0  0  0  0  0  0  0  0  0  0
   12.0263   -8.0014    0.0000 C   0  0  0  0  0  0  0  0  0  0  0  0
   13.6963   -9.9916    0.0000 P   0  0  0  0  0  0  0  0  0  0  0  0
   12.9463   -8.6926    0.0000 O   0  0  0  0  0  0  0  0  0  0  0  0
   14.8454  -10.9558    0.0000 O   0  0  0  0  0  0  0  0  0  0  0  0
   14.5849  -12.4330    0.0000 C   0  0  0  0  0  0  0  0  0  0  0  0
   15.7340  -13.3972    0.0000 C   0  0  0  0  0  0  0  0  0  0  0  0
   15.4735  -14.8744    0.0000 C   0  0  0  0  0  0  0  0  0  0  0  0
   14.0640  -15.3874    0.0000 C   0  0  0  0  0  0  0  0  0  0  0  0
   12.9149  -14.4232    0.0000 C   0  0  0  0  0  0  0  0  0  0  0  0
   13.1754  -12.9460    0.0000 C   0  0  0  0  0  0  0  0  0  0  0  0
   12.0263  -11.9818    0.0000 C   0  0  0  0  0  0  0  0  0  0  0  0
   10.6168  -12.4949    0.0000 C   0  0  0  0  0  0  0  0  0  0  0  0
    9.4677  -11.5307    0.0000 C   0  0  0  0  0  0  0  0  0  0  0  0
    9.7282  -10.0535    0.0000 C   0  0  0  0  0  0  0  0  0  0  0  0
   11.1377   -9.5404    0.0000 C   0  0  0  0  0  0  0  0  0  0  0  0
   12.2868  -10.5046    0.0000 C   0  0  0  0  0  0  0  0  0  0  0  0
   17.4040   -8.5763    0.0000 C   0  0  0  0  0  0  0  0  0  0  0  0
   17.1435   -7.0991    0.0000 O   0  0  0  0  0  0  0  0  0  0  0  0
   18.8135   -9.0893    0.0000 C   0  0  0  0  0  0  0  0  0  0  0  0
  1  2  1  0
  2  3  2  0
  3  4  1  0
  4  5  2  0
  5  6  1  0
  6  7  1  0
  7  8  1  0
  8  9  2  0
  9 10  1  0
 10 11  2  0
 11 12  1  0
 12 13  2  0
 12 14  2  0
 12 15  1  0
 15 16  2  0
 16 17  1  0
 17 18  2  0
 18 19  1  0
 19 20  1  0
 20 21  1  0
 21 22  2  0
 22 23  1  0
 23 24  2  0
 24 25  1  0
 25 26  2  0
 26 27  1  0
 20 28  1  0
 28 29  2  0
 28 30  1  0
 30 31  1  0
 31 32  2  0
 32 33  1  0
 33 34  2  0
 34 35  1  0
 35 36  2  0
 36 37  1  0
 37 38  2  0
 38 39  1  0
 39 40  2  0
 40 41  1  0
 41 42  2  0
 18 43  1  0
 43 44  2  0
 11 45  1  0
 45 46  2  0
  6 47  1  0
 47 48  2  0
 47 49  1  0
 49 50  1  0
 50 51  2  0
 51 52  1  0
 52 53  2  0
 53 54  1  0
 54 55  2  0
 55 56  1  0
 56 57  2  0
 57 58  1  0
 58 59  2  0
 59 60  1  0
 60 61  2  0
  5 62  1  0
 62 63  1  0
 62 64  2  0
 64  2  1  0
 46  8  1  0
 61 47  1  0
 44 15  1  0
 55 50  1  0
 61 56  1  0
 26 21  1  0
 42 28  1  0
 36 31  1  0
 42 37  1  0
M  END
>  <Candidate_ID>  (174) 
CAND_R2_174

>  <Candidate_Name>  (174) 
DSD-amino

>  <Parent_Seed_ID>  (174) 
TRAIN_077

>  <Parent_Name>  (174) 
DSD

>  <Transformation_Code>  (174) 
amino

>  <Design_Family>  (174) 
P-N-S

>  <Preparation_Type>  (174) 
Co-curing

>  <Synthesis_Level>  (174) 
B

>  <Parent_Tanimoto_r3>  (174) 
0.8333333333333334

>  <Max_Train_Tanimoto_r3>  (174) 
0.8333333333333334

>  <Risk_Flags>  (174) 
none

$$$$
CAND_R2_175 | DSD-hydroxy
     RDKit          2D

 64 73  0  0  0  0  0  0  0  0999 V2000
   12.9463   -8.6926    0.0000 O   0  0  0  0  0  0  0  0  0  0  0  0
   13.6963   -9.9916    0.0000 P   0  0  0  0  0  0  0  0  0  0  0  0
   14.8454   -9.0274    0.0000 C   0  0  0  0  0  0  0  0  0  0  0  0
   14.5849   -7.5502    0.0000 N   0  0  0  0  0  0  0  0  0  0  0  0
   13.1754   -7.0372    0.0000 C   0  0  0  0  0  0  0  0  0  0  0  0
   12.9149   -5.5600    0.0000 C   0  0  0  0  0  0  0  0  0  0  0  0
   11.5054   -5.0469    0.0000 C   0  0  0  0  0  0  0  0  0  0  0  0
   10.3563   -6.0111    0.0000 C   0  0  0  0  0  0  0  0  0  0  0  0
    8.9468   -5.4981    0.0000 S   0  0  0  0  0  0  0  0  0  0  0  0
    9.4598   -4.0885    0.0000 O   0  0  0  0  0  0  0  0  0  0  0  0
    8.4337   -6.9076    0.0000 O   0  0  0  0  0  0  0  0  0  0  0  0
    7.5372   -4.9851    0.0000 C   0  0  0  0  0  0  0  0  0  0  0  0
    7.2768   -3.5078    0.0000 C   0  0  0  0  0  0  0  0  0  0  0  0
    5.8672   -2.9948    0.0000 C   0  0  0  0  0  0  0  0  0  0  0  0
    4.7181   -3.9590    0.0000 C   0  0  0  0  0  0  0  0  0  0  0  0
    3.3086   -3.4460    0.0000 N   0  0  0  0  0  0  0  0  0  0  0  0
    3.0481   -1.9688    0.0000 C   0  0  0  0  0  0  0  0  0  0  0  0
    4.1972   -1.0046    0.0000 C   0  0  0  0  0  0  0  0  0  0  0  0
    5.6067   -1.5176    0.0000 C   0  0  0  0  0  0  0  0  0  0  0  0
    6.7558   -0.5534    0.0000 C   0  0  0  0  0  0  0  0  0  0  0  0
    6.4953    0.9238    0.0000 C   0  0  0  0  0  0  0  0  0  0  0  0
    7.6444    1.8880    0.0000 O   0  0  0  0  0  0  0  0  0  0  0  0
    5.0858    1.4368    0.0000 C   0  0  0  0  0  0  0  0  0  0  0  0
    3.9367    0.4726    0.0000 C   0  0  0  0  0  0  0  0  0  0  0  0
    2.5272    0.9857    0.0000 O   0  0  0  0  0  0  0  0  0  0  0  0
    1.6386   -1.4557    0.0000 P   0  0  0  0  0  0  0  0  0  0  0  0
    2.3886   -0.1567    0.0000 O   0  0  0  0  0  0  0  0  0  0  0  0
    1.3781   -2.9329    0.0000 O   0  0  0  0  0  0  0  0  0  0  0  0
   -0.0314   -3.4460    0.0000 C   0  0  0  0  0  0  0  0  0  0  0  0
   -0.2919   -4.9232    0.0000 C   0  0  0  0  0  0  0  0  0  0  0  0
   -1.7014   -5.4362    0.0000 C   0  0  0  0  0  0  0  0  0  0  0  0
   -2.8505   -4.4720    0.0000 C   0  0  0  0  0  0  0  0  0  0  0  0
   -2.5900   -2.9948    0.0000 C   0  0  0  0  0  0  0  0  0  0  0  0
   -1.1805   -2.4818    0.0000 C   0  0  0  0  0  0  0  0  0  0  0  0
   -0.9200   -1.0046    0.0000 C   0  0  0  0  0  0  0  0  0  0  0  0
   -2.0691   -0.0404    0.0000 C   0  0  0  0  0  0  0  0  0  0  0  0
   -1.8086    1.4368    0.0000 C   0  0  0  0  0  0  0  0  0  0  0  0
   -0.3991    1.9499    0.0000 C   0  0  0  0  0  0  0  0  0  0  0  0
    0.7500    0.9857    0.0000 C   0  0  0  0  0  0  0  0  0  0  0  0
    0.4895   -0.4915    0.0000 C   0  0  0  0  0  0  0  0  0  0  0  0
    4.9786   -5.4362    0.0000 C   0  0  0  0  0  0  0  0  0  0  0  0
    6.3882   -5.9492    0.0000 C   0  0  0  0  0  0  0  0  0  0  0  0
   10.6168   -7.4883    0.0000 C   0  0  0  0  0  0  0  0  0  0  0  0
   12.0263   -8.0014    0.0000 C   0  0  0  0  0  0  0  0  0  0  0  0
   16.2549   -9.5404    0.0000 C   0  0  0  0  0  0  0  0  0  0  0  0
   16.5154  -11.0177    0.0000 C   0  0  0  0  0  0  0  0  0  0  0  0
   17.9249  -11.5307    0.0000 C   0  0  0  0  0  0  0  0  0  0  0  0
   19.0740  -10.5665    0.0000 C   0  0  0  0  0  0  0  0  0  0  0  0
   18.8135   -9.0893    0.0000 C   0  0  0  0  0  0  0  0  0  0  0  0
   17.4040   -8.5763    0.0000 C   0  0  0  0  0  0  0  0  0  0  0  0
   17.1435   -7.0991    0.0000 O   0  0  0  0  0  0  0  0  0  0  0  0
   14.8454  -10.9558    0.0000 O   0  0  0  0  0  0  0  0  0  0  0  0
   14.5849  -12.4330    0.0000 C   0  0  0  0  0  0  0  0  0  0  0  0
   15.7340  -13.3972    0.0000 C   0  0  0  0  0  0  0  0  0  0  0  0
   15.4735  -14.8744    0.0000 C   0  0  0  0  0  0  0  0  0  0  0  0
   14.0640  -15.3874    0.0000 C   0  0  0  0  0  0  0  0  0  0  0  0
   12.9149  -14.4232    0.0000 C   0  0  0  0  0  0  0  0  0  0  0  0
   13.1754  -12.9460    0.0000 C   0  0  0  0  0  0  0  0  0  0  0  0
   12.0263  -11.9818    0.0000 C   0  0  0  0  0  0  0  0  0  0  0  0
   10.6168  -12.4949    0.0000 C   0  0  0  0  0  0  0  0  0  0  0  0
    9.4677  -11.5307    0.0000 C   0  0  0  0  0  0  0  0  0  0  0  0
    9.7282  -10.0535    0.0000 C   0  0  0  0  0  0  0  0  0  0  0  0
   11.1377   -9.5404    0.0000 C   0  0  0  0  0  0  0  0  0  0  0  0
   12.2868  -10.5046    0.0000 C   0  0  0  0  0  0  0  0  0  0  0  0
  1  2  2  0
  2  3  1  0
  3  4  1  0
  4  5  1  0
  5  6  2  0
  6  7  1  0
  7  8  2  0
  8  9  1  0
  9 10  2  0
  9 11  2  0
  9 12  1  0
 12 13  2  0
 13 14  1  0
 14 15  2  0
 15 16  1  0
 16 17  1  0
 17 18  1  0
 18 19  2  0
 19 20  1  0
 20 21  2  0
 21 22  1  0
 21 23  1  0
 23 24  2  0
 24 25  1  0
 17 26  1  0
 26 27  2  0
 26 28  1  0
 28 29  1  0
 29 30  2  0
 30 31  1  0
 31 32  2  0
 32 33  1  0
 33 34  2  0
 34 35  1  0
 35 36  2  0
 36 37  1  0
 37 38  2  0
 38 39  1  0
 39 40  2  0
 15 41  1  0
 41 42  2  0
  8 43  1  0
 43 44  2  0
  3 45  1  0
 45 46  2  0
 46 47  1  0
 47 48  2  0
 48 49  1  0
 49 50  2  0
 50 51  1  0
  2 52  1  0
 52 53  1  0
 53 54  2  0
 54 55  1  0
 55 56  2  0
 56 57  1  0
 57 58  2  0
 58 59  1  0
 59 60  2  0
 60 61  1  0
 61 62  2  0
 62 63  1  0
 63 64  2  0
 64  2  1  0
 44  5  1  0
 50 45  1  0
 58 53  1  0
 64 59  1  0
 42 12  1  0
 24 18  1  0
 40 26  1  0
 34 29  1  0
 40 35  1  0
M  END
>  <Candidate_ID>  (175) 
CAND_R2_175

>  <Candidate_Name>  (175) 
DSD-hydroxy

>  <Parent_Seed_ID>  (175) 
TRAIN_077

>  <Parent_Name>  (175) 
DSD

>  <Transformation_Code>  (175) 
hydroxy

>  <Design_Family>  (175) 
P-N-S

>  <Preparation_Type>  (175) 
Additive

>  <Synthesis_Level>  (175) 
B

>  <Parent_Tanimoto_r3>  (175) 
0.8536585365853658

>  <Max_Train_Tanimoto_r3>  (175) 
0.8536585365853658

>  <Risk_Flags>  (175) 
none

$$$$
CAND_R2_176 | DSD-hydroxymethyl
     RDKit          2D

 65 74  0  0  0  0  0  0  0  0999 V2000
   12.9463   -8.6926    0.0000 O   0  0  0  0  0  0  0  0  0  0  0  0
   13.6963   -9.9916    0.0000 P   0  0  0  0  0  0  0  0  0  0  0  0
   14.8454   -9.0274    0.0000 C   0  0  0  0  0  0  0  0  0  0  0  0
   14.5849   -7.5502    0.0000 N   0  0  0  0  0  0  0  0  0  0  0  0
   13.1754   -7.0372    0.0000 C   0  0  0  0  0  0  0  0  0  0  0  0
   12.9149   -5.5600    0.0000 C   0  0  0  0  0  0  0  0  0  0  0  0
   11.5054   -5.0469    0.0000 C   0  0  0  0  0  0  0  0  0  0  0  0
   10.3563   -6.0111    0.0000 C   0  0  0  0  0  0  0  0  0  0  0  0
    8.9468   -5.4981    0.0000 S   0  0  0  0  0  0  0  0  0  0  0  0
    9.4598   -4.0885    0.0000 O   0  0  0  0  0  0  0  0  0  0  0  0
    8.4337   -6.9076    0.0000 O   0  0  0  0  0  0  0  0  0  0  0  0
    7.5372   -4.9851    0.0000 C   0  0  0  0  0  0  0  0  0  0  0  0
    7.2768   -3.5078    0.0000 C   0  0  0  0  0  0  0  0  0  0  0  0
    5.8672   -2.9948    0.0000 C   0  0  0  0  0  0  0  0  0  0  0  0
    4.7181   -3.9590    0.0000 C   0  0  0  0  0  0  0  0  0  0  0  0
    3.3086   -3.4460    0.0000 N   0  0  0  0  0  0  0  0  0  0  0  0
    3.0481   -1.9688    0.0000 C   0  0  0  0  0  0  0  0  0  0  0  0
    4.1972   -1.0046    0.0000 C   0  0  0  0  0  0  0  0  0  0  0  0
    5.6067   -1.5176    0.0000 C   0  0  0  0  0  0  0  0  0  0  0  0
    6.7558   -0.5534    0.0000 C   0  0  0  0  0  0  0  0  0  0  0  0
    6.4953    0.9238    0.0000 C   0  0  0  0  0  0  0  0  0  0  0  0
    7.6444    1.8880    0.0000 C   0  0  0  0  0  0  0  0  0  0  0  0
    9.0539    1.3749    0.0000 O   0  0  0  0  0  0  0  0  0  0  0  0
    5.0858    1.4368    0.0000 C   0  0  0  0  0  0  0  0  0  0  0  0
    3.9367    0.4726    0.0000 C   0  0  0  0  0  0  0  0  0  0  0  0
    2.5272    0.9857    0.0000 O   0  0  0  0  0  0  0  0  0  0  0  0
    1.6386   -1.4557    0.0000 P   0  0  0  0  0  0  0  0  0  0  0  0
    2.3886   -0.1567    0.0000 O   0  0  0  0  0  0  0  0  0  0  0  0
    1.3781   -2.9329    0.0000 O   0  0  0  0  0  0  0  0  0  0  0  0
   -0.0314   -3.4460    0.0000 C   0  0  0  0  0  0  0  0  0  0  0  0
   -0.2919   -4.9232    0.0000 C   0  0  0  0  0  0  0  0  0  0  0  0
   -1.7014   -5.4362    0.0000 C   0  0  0  0  0  0  0  0  0  0  0  0
   -2.8505   -4.4720    0.0000 C   0  0  0  0  0  0  0  0  0  0  0  0
   -2.5900   -2.9948    0.0000 C   0  0  0  0  0  0  0  0  0  0  0  0
   -1.1805   -2.4818    0.0000 C   0  0  0  0  0  0  0  0  0  0  0  0
   -0.9200   -1.0046    0.0000 C   0  0  0  0  0  0  0  0  0  0  0  0
   -2.0691   -0.0404    0.0000 C   0  0  0  0  0  0  0  0  0  0  0  0
   -1.8086    1.4368    0.0000 C   0  0  0  0  0  0  0  0  0  0  0  0
   -0.3991    1.9499    0.0000 C   0  0  0  0  0  0  0  0  0  0  0  0
    0.7500    0.9857    0.0000 C   0  0  0  0  0  0  0  0  0  0  0  0
    0.4895   -0.4915    0.0000 C   0  0  0  0  0  0  0  0  0  0  0  0
    4.9786   -5.4362    0.0000 C   0  0  0  0  0  0  0  0  0  0  0  0
    6.3882   -5.9492    0.0000 C   0  0  0  0  0  0  0  0  0  0  0  0
   10.6168   -7.4883    0.0000 C   0  0  0  0  0  0  0  0  0  0  0  0
   12.0263   -8.0014    0.0000 C   0  0  0  0  0  0  0  0  0  0  0  0
   16.2549   -9.5404    0.0000 C   0  0  0  0  0  0  0  0  0  0  0  0
   16.5154  -11.0177    0.0000 C   0  0  0  0  0  0  0  0  0  0  0  0
   17.9249  -11.5307    0.0000 C   0  0  0  0  0  0  0  0  0  0  0  0
   19.0740  -10.5665    0.0000 C   0  0  0  0  0  0  0  0  0  0  0  0
   18.8135   -9.0893    0.0000 C   0  0  0  0  0  0  0  0  0  0  0  0
   17.4040   -8.5763    0.0000 C   0  0  0  0  0  0  0  0  0  0  0  0
   17.1435   -7.0991    0.0000 O   0  0  0  0  0  0  0  0  0  0  0  0
   14.8454  -10.9558    0.0000 O   0  0  0  0  0  0  0  0  0  0  0  0
   14.5849  -12.4330    0.0000 C   0  0  0  0  0  0  0  0  0  0  0  0
   15.7340  -13.3972    0.0000 C   0  0  0  0  0  0  0  0  0  0  0  0
   15.4735  -14.8744    0.0000 C   0  0  0  0  0  0  0  0  0  0  0  0
   14.0640  -15.3874    0.0000 C   0  0  0  0  0  0  0  0  0  0  0  0
   12.9149  -14.4232    0.0000 C   0  0  0  0  0  0  0  0  0  0  0  0
   13.1754  -12.9460    0.0000 C   0  0  0  0  0  0  0  0  0  0  0  0
   12.0263  -11.9818    0.0000 C   0  0  0  0  0  0  0  0  0  0  0  0
   10.6168  -12.4949    0.0000 C   0  0  0  0  0  0  0  0  0  0  0  0
    9.4677  -11.5307    0.0000 C   0  0  0  0  0  0  0  0  0  0  0  0
    9.7282  -10.0535    0.0000 C   0  0  0  0  0  0  0  0  0  0  0  0
   11.1377   -9.5404    0.0000 C   0  0  0  0  0  0  0  0  0  0  0  0
   12.2868  -10.5046    0.0000 C   0  0  0  0  0  0  0  0  0  0  0  0
  1  2  2  0
  2  3  1  0
  3  4  1  0
  4  5  1  0
  5  6  2  0
  6  7  1  0
  7  8  2  0
  8  9  1  0
  9 10  2  0
  9 11  2  0
  9 12  1  0
 12 13  2  0
 13 14  1  0
 14 15  2  0
 15 16  1  0
 16 17  1  0
 17 18  1  0
 18 19  2  0
 19 20  1  0
 20 21  2  0
 21 22  1  0
 22 23  1  0
 21 24  1  0
 24 25  2  0
 25 26  1  0
 17 27  1  0
 27 28  2  0
 27 29  1  0
 29 30  1  0
 30 31  2  0
 31 32  1  0
 32 33  2  0
 33 34  1  0
 34 35  2  0
 35 36  1  0
 36 37  2  0
 37 38  1  0
 38 39  2  0
 39 40  1  0
 40 41  2  0
 15 42  1  0
 42 43  2  0
  8 44  1  0
 44 45  2  0
  3 46  1  0
 46 47  2  0
 47 48  1  0
 48 49  2  0
 49 50  1  0
 50 51  2  0
 51 52  1  0
  2 53  1  0
 53 54  1  0
 54 55  2  0
 55 56  1  0
 56 57  2  0
 57 58  1  0
 58 59  2  0
 59 60  1  0
 60 61  2  0
 61 62  1  0
 62 63  2  0
 63 64  1  0
 64 65  2  0
 65  2  1  0
 45  5  1  0
 51 46  1  0
 59 54  1  0
 65 60  1  0
 43 12  1  0
 25 18  1  0
 41 27  1  0
 35 30  1  0
 41 36  1  0
M  END
>  <Candidate_ID>  (176) 
CAND_R2_176

>  <Candidate_Name>  (176) 
DSD-hydroxymethyl

>  <Parent_Seed_ID>  (176) 
TRAIN_077

>  <Parent_Name>  (176) 
DSD

>  <Transformation_Code>  (176) 
hydroxymethyl

>  <Design_Family>  (176) 
P-N-S

>  <Preparation_Type>  (176) 
Additive

>  <Synthesis_Level>  (176) 
B

>  <Parent_Tanimoto_r3>  (176) 
0.813953488372093

>  <Max_Train_Tanimoto_r3>  (176) 
0.813953488372093

>  <Risk_Flags>  (176) 
none

$$$$
CAND_R2_177 | DSD-carboxamide
     RDKit          2D

 66 75  0  0  0  0  0  0  0  0999 V2000
   20.7440  -12.5567    0.0000 N   0  0  0  0  0  0  0  0  0  0  0  0
   20.4835  -11.0795    0.0000 C   0  0  0  0  0  0  0  0  0  0  0  0
   21.6326  -10.1154    0.0000 O   0  0  0  0  0  0  0  0  0  0  0  0
   19.0740  -10.5665    0.0000 C   0  0  0  0  0  0  0  0  0  0  0  0
   17.9249  -11.5307    0.0000 C   0  0  0  0  0  0  0  0  0  0  0  0
   16.5154  -11.0177    0.0000 C   0  0  0  0  0  0  0  0  0  0  0  0
   16.2549   -9.5404    0.0000 C   0  0  0  0  0  0  0  0  0  0  0  0
   14.8454   -9.0274    0.0000 C   0  0  0  0  0  0  0  0  0  0  0  0
   14.5849   -7.5502    0.0000 N   0  0  0  0  0  0  0  0  0  0  0  0
   13.1754   -7.0372    0.0000 C   0  0  0  0  0  0  0  0  0  0  0  0
   12.9149   -5.5600    0.0000 C   0  0  0  0  0  0  0  0  0  0  0  0
   11.5054   -5.0469    0.0000 C   0  0  0  0  0  0  0  0  0  0  0  0
   10.3563   -6.0111    0.0000 C   0  0  0  0  0  0  0  0  0  0  0  0
    8.9468   -5.4981    0.0000 S   0  0  0  0  0  0  0  0  0  0  0  0
    8.4337   -6.9076    0.0000 O   0  0  0  0  0  0  0  0  0  0  0  0
    9.4598   -4.0885    0.0000 O   0  0  0  0  0  0  0  0  0  0  0  0
    7.5372   -4.9851    0.0000 C   0  0  0  0  0  0  0  0  0  0  0  0
    7.2768   -3.5078    0.0000 C   0  0  0  0  0  0  0  0  0  0  0  0
    5.8672   -2.9948    0.0000 C   0  0  0  0  0  0  0  0  0  0  0  0
    4.7181   -3.9590    0.0000 C   0  0  0  0  0  0  0  0  0  0  0  0
    3.3086   -3.4460    0.0000 N   0  0  0  0  0  0  0  0  0  0  0  0
    3.0481   -1.9688    0.0000 C   0  0  0  0  0  0  0  0  0  0  0  0
    4.1972   -1.0046    0.0000 C   0  0  0  0  0  0  0  0  0  0  0  0
    5.6067   -1.5176    0.0000 C   0  0  0  0  0  0  0  0  0  0  0  0
    6.7558   -0.5534    0.0000 C   0  0  0  0  0  0  0  0  0  0  0  0
    6.4953    0.9238    0.0000 C   0  0  0  0  0  0  0  0  0  0  0  0
    5.0858    1.4368    0.0000 C   0  0  0  0  0  0  0  0  0  0  0  0
    3.9367    0.4726    0.0000 C   0  0  0  0  0  0  0  0  0  0  0  0
    2.5272    0.9857    0.0000 O   0  0  0  0  0  0  0  0  0  0  0  0
    1.6386   -1.4557    0.0000 P   0  0  0  0  0  0  0  0  0  0  0  0
    2.3886   -0.1567    0.0000 O   0  0  0  0  0  0  0  0  0  0  0  0
    1.3781   -2.9329    0.0000 O   0  0  0  0  0  0  0  0  0  0  0  0
   -0.0314   -3.4460    0.0000 C   0  0  0  0  0  0  0  0  0  0  0  0
   -0.2919   -4.9232    0.0000 C   0  0  0  0  0  0  0  0  0  0  0  0
   -1.7014   -5.4362    0.0000 C   0  0  0  0  0  0  0  0  0  0  0  0
   -2.8505   -4.4720    0.0000 C   0  0  0  0  0  0  0  0  0  0  0  0
   -2.5900   -2.9948    0.0000 C   0  0  0  0  0  0  0  0  0  0  0  0
   -1.1805   -2.4818    0.0000 C   0  0  0  0  0  0  0  0  0  0  0  0
   -0.9200   -1.0046    0.0000 C   0  0  0  0  0  0  0  0  0  0  0  0
   -2.0691   -0.0404    0.0000 C   0  0  0  0  0  0  0  0  0  0  0  0
   -1.8086    1.4368    0.0000 C   0  0  0  0  0  0  0  0  0  0  0  0
   -0.3991    1.9499    0.0000 C   0  0  0  0  0  0  0  0  0  0  0  0
    0.7500    0.9857    0.0000 C   0  0  0  0  0  0  0  0  0  0  0  0
    0.4895   -0.4915    0.0000 C   0  0  0  0  0  0  0  0  0  0  0  0
    4.9786   -5.4362    0.0000 C   0  0  0  0  0  0  0  0  0  0  0  0
    6.3882   -5.9492    0.0000 C   0  0  0  0  0  0  0  0  0  0  0  0
   10.6168   -7.4883    0.0000 C   0  0  0  0  0  0  0  0  0  0  0  0
   12.0263   -8.0014    0.0000 C   0  0  0  0  0  0  0  0  0  0  0  0
   13.6963   -9.9916    0.0000 P   0  0  0  0  0  0  0  0  0  0  0  0
   12.9463   -8.6926    0.0000 O   0  0  0  0  0  0  0  0  0  0  0  0
   14.8454  -10.9558    0.0000 O   0  0  0  0  0  0  0  0  0  0  0  0
   14.5849  -12.4330    0.0000 C   0  0  0  0  0  0  0  0  0  0  0  0
   15.7340  -13.3972    0.0000 C   0  0  0  0  0  0  0  0  0  0  0  0
   15.4735  -14.8744    0.0000 C   0  0  0  0  0  0  0  0  0  0  0  0
   14.0640  -15.3874    0.0000 C   0  0  0  0  0  0  0  0  0  0  0  0
   12.9149  -14.4232    0.0000 C   0  0  0  0  0  0  0  0  0  0  0  0
   13.1754  -12.9460    0.0000 C   0  0  0  0  0  0  0  0  0  0  0  0
   12.0263  -11.9818    0.0000 C   0  0  0  0  0  0  0  0  0  0  0  0
   10.6168  -12.4949    0.0000 C   0  0  0  0  0  0  0  0  0  0  0  0
    9.4677  -11.5307    0.0000 C   0  0  0  0  0  0  0  0  0  0  0  0
    9.7282  -10.0535    0.0000 C   0  0  0  0  0  0  0  0  0  0  0  0
   11.1377   -9.5404    0.0000 C   0  0  0  0  0  0  0  0  0  0  0  0
   12.2868  -10.5046    0.0000 C   0  0  0  0  0  0  0  0  0  0  0  0
   17.4040   -8.5763    0.0000 C   0  0  0  0  0  0  0  0  0  0  0  0
   17.1435   -7.0991    0.0000 O   0  0  0  0  0  0  0  0  0  0  0  0
   18.8135   -9.0893    0.0000 C   0  0  0  0  0  0  0  0  0  0  0  0
  1  2  1  0
  2  3  2  0
  2  4  1  0
  4  5  2  0
  5  6  1  0
  6  7  2  0
  7  8  1  0
  8  9  1  0
  9 10  1  0
 10 11  2  0
 11 12  1  0
 12 13  2  0
 13 14  1  0
 14 15  2  0
 14 16  2  0
 14 17  1  0
 17 18  2  0
 18 19  1  0
 19 20  2  0
 20 21  1  0
 21 22  1  0
 22 23  1  0
 23 24  2  0
 24 25  1  0
 25 26  2  0
 26 27  1  0
 27 28  2  0
 28 29  1  0
 22 30  1  0
 30 31  2  0
 30 32  1  0
 32 33  1  0
 33 34  2  0
 34 35  1  0
 35 36  2  0
 36 37  1  0
 37 38  2  0
 38 39  1  0
 39 40  2  0
 40 41  1  0
 41 42  2  0
 42 43  1  0
 43 44  2  0
 20 45  1  0
 45 46  2  0
 13 47  1  0
 47 48  2  0
  8 49  1  0
 49 50  2  0
 49 51  1  0
 51 52  1  0
 52 53  2  0
 53 54  1  0
 54 55  2  0
 55 56  1  0
 56 57  2  0
 57 58  1  0
 58 59  2  0
 59 60  1  0
 60 61  2  0
 61 62  1  0
 62 63  2  0
  7 64  1  0
 64 65  1  0
 64 66  2  0
 66  4  1  0
 48 10  1  0
 63 49  1  0
 46 17  1  0
 57 52  1  0
 63 58  1  0
 28 23  1  0
 44 30  1  0
 38 33  1  0
 44 39  1  0
M  END
>  <Candidate_ID>  (177) 
CAND_R2_177

>  <Candidate_Name>  (177) 
DSD-carboxamide

>  <Parent_Seed_ID>  (177) 
TRAIN_077

>  <Parent_Name>  (177) 
DSD

>  <Transformation_Code>  (177) 
carboxamide

>  <Design_Family>  (177) 
P-N-S

>  <Preparation_Type>  (177) 
Additive

>  <Synthesis_Level>  (177) 
B

>  <Parent_Tanimoto_r3>  (177) 
0.8045977011494253

>  <Max_Train_Tanimoto_r3>  (177) 
0.8045977011494253

>  <Risk_Flags>  (177) 
none

$$$$
CAND_R2_178 | DSD-boronic-acid
     RDKit          2D

 66 75  0  0  0  0  0  0  0  0999 V2000
   12.9463   -8.6926    0.0000 O   0  0  0  0  0  0  0  0  0  0  0  0
   13.6963   -9.9916    0.0000 P   0  0  0  0  0  0  0  0  0  0  0  0
   14.8454   -9.0274    0.0000 C   0  0  0  0  0  0  0  0  0  0  0  0
   14.5849   -7.5502    0.0000 N   0  0  0  0  0  0  0  0  0  0  0  0
   13.1754   -7.0372    0.0000 C   0  0  0  0  0  0  0  0  0  0  0  0
   12.9149   -5.5600    0.0000 C   0  0  0  0  0  0  0  0  0  0  0  0
   11.5054   -5.0469    0.0000 C   0  0  0  0  0  0  0  0  0  0  0  0
   10.3563   -6.0111    0.0000 C   0  0  0  0  0  0  0  0  0  0  0  0
    8.9468   -5.4981    0.0000 S   0  0  0  0  0  0  0  0  0  0  0  0
    9.4598   -4.0885    0.0000 O   0  0  0  0  0  0  0  0  0  0  0  0
    8.4337   -6.9076    0.0000 O   0  0  0  0  0  0  0  0  0  0  0  0
    7.5372   -4.9851    0.0000 C   0  0  0  0  0  0  0  0  0  0  0  0
    7.2768   -3.5078    0.0000 C   0  0  0  0  0  0  0  0  0  0  0  0
    5.8672   -2.9948    0.0000 C   0  0  0  0  0  0  0  0  0  0  0  0
    4.7181   -3.9590    0.0000 C   0  0  0  0  0  0  0  0  0  0  0  0
    3.3086   -3.4460    0.0000 N   0  0  0  0  0  0  0  0  0  0  0  0
    3.0481   -1.9688    0.0000 C   0  0  0  0  0  0  0  0  0  0  0  0
    4.1972   -1.0046    0.0000 C   0  0  0  0  0  0  0  0  0  0  0  0
    5.6067   -1.5176    0.0000 C   0  0  0  0  0  0  0  0  0  0  0  0
    6.7558   -0.5534    0.0000 C   0  0  0  0  0  0  0  0  0  0  0  0
    6.4953    0.9238    0.0000 C   0  0  0  0  0  0  0  0  0  0  0  0
    7.6444    1.8880    0.0000 B   0  0  0  0  0  0  0  0  0  0  0  0
    9.0539    1.3749    0.0000 O   0  0  0  0  0  0  0  0  0  0  0  0
    7.3839    3.3652    0.0000 O   0  0  0  0  0  0  0  0  0  0  0  0
    5.0858    1.4368    0.0000 C   0  0  0  0  0  0  0  0  0  0  0  0
    3.9367    0.4726    0.0000 C   0  0  0  0  0  0  0  0  0  0  0  0
    2.5272    0.9857    0.0000 O   0  0  0  0  0  0  0  0  0  0  0  0
    1.6386   -1.4557    0.0000 P   0  0  0  0  0  0  0  0  0  0  0  0
    2.3886   -0.1567    0.0000 O   0  0  0  0  0  0  0  0  0  0  0  0
    1.3781   -2.9329    0.0000 O   0  0  0  0  0  0  0  0  0  0  0  0
   -0.0314   -3.4460    0.0000 C   0  0  0  0  0  0  0  0  0  0  0  0
   -0.2919   -4.9232    0.0000 C   0  0  0  0  0  0  0  0  0  0  0  0
   -1.7014   -5.4362    0.0000 C   0  0  0  0  0  0  0  0  0  0  0  0
   -2.8505   -4.4720    0.0000 C   0  0  0  0  0  0  0  0  0  0  0  0
   -2.5900   -2.9948    0.0000 C   0  0  0  0  0  0  0  0  0  0  0  0
   -1.1805   -2.4818    0.0000 C   0  0  0  0  0  0  0  0  0  0  0  0
   -0.9200   -1.0046    0.0000 C   0  0  0  0  0  0  0  0  0  0  0  0
   -2.0691   -0.0404    0.0000 C   0  0  0  0  0  0  0  0  0  0  0  0
   -1.8086    1.4368    0.0000 C   0  0  0  0  0  0  0  0  0  0  0  0
   -0.3991    1.9499    0.0000 C   0  0  0  0  0  0  0  0  0  0  0  0
    0.7500    0.9857    0.0000 C   0  0  0  0  0  0  0  0  0  0  0  0
    0.4895   -0.4915    0.0000 C   0  0  0  0  0  0  0  0  0  0  0  0
    4.9786   -5.4362    0.0000 C   0  0  0  0  0  0  0  0  0  0  0  0
    6.3882   -5.9492    0.0000 C   0  0  0  0  0  0  0  0  0  0  0  0
   10.6168   -7.4883    0.0000 C   0  0  0  0  0  0  0  0  0  0  0  0
   12.0263   -8.0014    0.0000 C   0  0  0  0  0  0  0  0  0  0  0  0
   16.2549   -9.5404    0.0000 C   0  0  0  0  0  0  0  0  0  0  0  0
   16.5154  -11.0177    0.0000 C   0  0  0  0  0  0  0  0  0  0  0  0
   17.9249  -11.5307    0.0000 C   0  0  0  0  0  0  0  0  0  0  0  0
   19.0740  -10.5665    0.0000 C   0  0  0  0  0  0  0  0  0  0  0  0
   18.8135   -9.0893    0.0000 C   0  0  0  0  0  0  0  0  0  0  0  0
   17.4040   -8.5763    0.0000 C   0  0  0  0  0  0  0  0  0  0  0  0
   17.1435   -7.0991    0.0000 O   0  0  0  0  0  0  0  0  0  0  0  0
   14.8454  -10.9558    0.0000 O   0  0  0  0  0  0  0  0  0  0  0  0
   14.5849  -12.4330    0.0000 C   0  0  0  0  0  0  0  0  0  0  0  0
   15.7340  -13.3972    0.0000 C   0  0  0  0  0  0  0  0  0  0  0  0
   15.4735  -14.8744    0.0000 C   0  0  0  0  0  0  0  0  0  0  0  0
   14.0640  -15.3874    0.0000 C   0  0  0  0  0  0  0  0  0  0  0  0
   12.9149  -14.4232    0.0000 C   0  0  0  0  0  0  0  0  0  0  0  0
   13.1754  -12.9460    0.0000 C   0  0  0  0  0  0  0  0  0  0  0  0
   12.0263  -11.9818    0.0000 C   0  0  0  0  0  0  0  0  0  0  0  0
   10.6168  -12.4949    0.0000 C   0  0  0  0  0  0  0  0  0  0  0  0
    9.4677  -11.5307    0.0000 C   0  0  0  0  0  0  0  0  0  0  0  0
    9.7282  -10.0535    0.0000 C   0  0  0  0  0  0  0  0  0  0  0  0
   11.1377   -9.5404    0.0000 C   0  0  0  0  0  0  0  0  0  0  0  0
   12.2868  -10.5046    0.0000 C   0  0  0  0  0  0  0  0  0  0  0  0
  1  2  2  0
  2  3  1  0
  3  4  1  0
  4  5  1  0
  5  6  2  0
  6  7  1  0
  7  8  2  0
  8  9  1  0
  9 10  2  0
  9 11  2  0
  9 12  1  0
 12 13  2  0
 13 14  1  0
 14 15  2  0
 15 16  1  0
 16 17  1  0
 17 18  1  0
 18 19  2  0
 19 20  1  0
 20 21  2  0
 21 22  1  0
 22 23  1  0
 22 24  1  0
 21 25  1  0
 25 26  2  0
 26 27  1  0
 17 28  1  0
 28 29  2  0
 28 30  1  0
 30 31  1  0
 31 32  2  0
 32 33  1  0
 33 34  2  0
 34 35  1  0
 35 36  2  0
 36 37  1  0
 37 38  2  0
 38 39  1  0
 39 40  2  0
 40 41  1  0
 41 42  2  0
 15 43  1  0
 43 44  2  0
  8 45  1  0
 45 46  2  0
  3 47  1  0
 47 48  2  0
 48 49  1  0
 49 50  2  0
 50 51  1  0
 51 52  2  0
 52 53  1  0
  2 54  1  0
 54 55  1  0
 55 56  2  0
 56 57  1  0
 57 58  2  0
 58 59  1  0
 59 60  2  0
 60 61  1  0
 61 62  2  0
 62 63  1  0
 63 64  2  0
 64 65  1  0
 65 66  2  0
 66  2  1  0
 46  5  1  0
 52 47  1  0
 60 55  1  0
 66 61  1  0
 44 12  1  0
 26 18  1  0
 42 28  1  0
 36 31  1  0
 42 37  1  0
M  END
>  <Candidate_ID>  (178) 
CAND_R2_178

>  <Candidate_Name>  (178) 
DSD-boronic-acid

>  <Parent_Seed_ID>  (178) 
TRAIN_077

>  <Parent_Name>  (178) 
DSD

>  <Transformation_Code>  (178) 
boronic_acid

>  <Design_Family>  (178) 
P-N-B-S

>  <Preparation_Type>  (178) 
Additive

>  <Synthesis_Level>  (178) 
B

>  <Parent_Tanimoto_r3>  (178) 
0.813953488372093

>  <Max_Train_Tanimoto_r3>  (178) 
0.813953488372093

>  <Risk_Flags>  (178) 
none

$$$$
CAND_R2_179 | DSD-pinacol-boronate
     RDKit          2D

 72 82  0  0  0  0  0  0  0  0999 V2000
   23.7040   -9.8922    0.0000 C   0  0  0  0  0  0  0  0  0  0  0  0
   22.9091  -11.1642    0.0000 C   0  0  0  0  0  0  0  0  0  0  0  0
   24.2573  -11.8218    0.0000 C   0  0  0  0  0  0  0  0  0  0  0  0
   21.7271  -10.2407    0.0000 O   0  0  0  0  0  0  0  0  0  0  0  0
   20.4835  -11.0795    0.0000 B   0  0  0  0  0  0  0  0  0  0  0  0
   19.0740  -10.5665    0.0000 C   0  0  0  0  0  0  0  0  0  0  0  0
   18.8135   -9.0893    0.0000 C   0  0  0  0  0  0  0  0  0  0  0  0
   17.4040   -8.5763    0.0000 C   0  0  0  0  0  0  0  0  0  0  0  0
   16.2549   -9.5404    0.0000 C   0  0  0  0  0  0  0  0  0  0  0  0
   14.8454   -9.0274    0.0000 C   0  0  0  0  0  0  0  0  0  0  0  0
   14.5849   -7.5502    0.0000 N   0  0  0  0  0  0  0  0  0  0  0  0
   13.1754   -7.0372    0.0000 C   0  0  0  0  0  0  0  0  0  0  0  0
   12.9149   -5.5600    0.0000 C   0  0  0  0  0  0  0  0  0  0  0  0
   11.5054   -5.0469    0.0000 C   0  0  0  0  0  0  0  0  0  0  0  0
   10.3563   -6.0111    0.0000 C   0  0  0  0  0  0  0  0  0  0  0  0
    8.9468   -5.4981    0.0000 S   0  0  0  0  0  0  0  0  0  0  0  0
    8.4337   -6.9076    0.0000 O   0  0  0  0  0  0  0  0  0  0  0  0
    9.4598   -4.0885    0.0000 O   0  0  0  0  0  0  0  0  0  0  0  0
    7.5372   -4.9851    0.0000 C   0  0  0  0  0  0  0  0  0  0  0  0
    7.2768   -3.5078    0.0000 C   0  0  0  0  0  0  0  0  0  0  0  0
    5.8672   -2.9948    0.0000 C   0  0  0  0  0  0  0  0  0  0  0  0
    4.7181   -3.9590    0.0000 C   0  0  0  0  0  0  0  0  0  0  0  0
    3.3086   -3.4460    0.0000 N   0  0  0  0  0  0  0  0  0  0  0  0
    3.0481   -1.9688    0.0000 C   0  0  0  0  0  0  0  0  0  0  0  0
    4.1972   -1.0046    0.0000 C   0  0  0  0  0  0  0  0  0  0  0  0
    5.6067   -1.5176    0.0000 C   0  0  0  0  0  0  0  0  0  0  0  0
    6.7558   -0.5534    0.0000 C   0  0  0  0  0  0  0  0  0  0  0  0
    6.4953    0.9238    0.0000 C   0  0  0  0  0  0  0  0  0  0  0  0
    5.0858    1.4368    0.0000 C   0  0  0  0  0  0  0  0  0  0  0  0
    3.9367    0.4726    0.0000 C   0  0  0  0  0  0  0  0  0  0  0  0
    2.5272    0.9857    0.0000 O   0  0  0  0  0  0  0  0  0  0  0  0
    1.6386   -1.4557    0.0000 P   0  0  0  0  0  0  0  0  0  0  0  0
    2.3886   -0.1567    0.0000 O   0  0  0  0  0  0  0  0  0  0  0  0
    1.3781   -2.9329    0.0000 O   0  0  0  0  0  0  0  0  0  0  0  0
   -0.0314   -3.4460    0.0000 C   0  0  0  0  0  0  0  0  0  0  0  0
   -0.2919   -4.9232    0.0000 C   0  0  0  0  0  0  0  0  0  0  0  0
   -1.7014   -5.4362    0.0000 C   0  0  0  0  0  0  0  0  0  0  0  0
   -2.8505   -4.4720    0.0000 C   0  0  0  0  0  0  0  0  0  0  0  0
   -2.5900   -2.9948    0.0000 C   0  0  0  0  0  0  0  0  0  0  0  0
   -1.1805   -2.4818    0.0000 C   0  0  0  0  0  0  0  0  0  0  0  0
   -0.9200   -1.0046    0.0000 C   0  0  0  0  0  0  0  0  0  0  0  0
   -2.0691   -0.0404    0.0000 C   0  0  0  0  0  0  0  0  0  0  0  0
   -1.8086    1.4368    0.0000 C   0  0  0  0  0  0  0  0  0  0  0  0
   -0.3991    1.9499    0.0000 C   0  0  0  0  0  0  0  0  0  0  0  0
    0.7500    0.9857    0.0000 C   0  0  0  0  0  0  0  0  0  0  0  0
    0.4895   -0.4915    0.0000 C   0  0  0  0  0  0  0  0  0  0  0  0
    4.9786   -5.4362    0.0000 C   0  0  0  0  0  0  0  0  0  0  0  0
    6.3882   -5.9492    0.0000 C   0  0  0  0  0  0  0  0  0  0  0  0
   10.6168   -7.4883    0.0000 C   0  0  0  0  0  0  0  0  0  0  0  0
   12.0263   -8.0014    0.0000 C   0  0  0  0  0  0  0  0  0  0  0  0
   13.6963   -9.9916    0.0000 P   0  0  0  0  0  0  0  0  0  0  0  0
   12.9463   -8.6926    0.0000 O   0  0  0  0  0  0  0  0  0  0  0  0
   14.8454  -10.9558    0.0000 O   0  0  0  0  0  0  0  0  0  0  0  0
   14.5849  -12.4330    0.0000 C   0  0  0  0  0  0  0  0  0  0  0  0
   15.7340  -13.3972    0.0000 C   0  0  0  0  0  0  0  0  0  0  0  0
   15.4735  -14.8744    0.0000 C   0  0  0  0  0  0  0  0  0  0  0  0
   14.0640  -15.3874    0.0000 C   0  0  0  0  0  0  0  0  0  0  0  0
   12.9149  -14.4232    0.0000 C   0  0  0  0  0  0  0  0  0  0  0  0
   13.1754  -12.9460    0.0000 C   0  0  0  0  0  0  0  0  0  0  0  0
   12.0263  -11.9818    0.0000 C   0  0  0  0  0  0  0  0  0  0  0  0
   10.6168  -12.4949    0.0000 C   0  0  0  0  0  0  0  0  0  0  0  0
    9.4677  -11.5307    0.0000 C   0  0  0  0  0  0  0  0  0  0  0  0
    9.7282  -10.0535    0.0000 C   0  0  0  0  0  0  0  0  0  0  0  0
   11.1377   -9.5404    0.0000 C   0  0  0  0  0  0  0  0  0  0  0  0
   12.2868  -10.5046    0.0000 C   0  0  0  0  0  0  0  0  0  0  0  0
   16.5154  -11.0177    0.0000 C   0  0  0  0  0  0  0  0  0  0  0  0
   15.3663  -11.9818    0.0000 O   0  0  0  0  0  0  0  0  0  0  0  0
   17.9249  -11.5307    0.0000 C   0  0  0  0  0  0  0  0  0  0  0  0
   20.8970  -12.5214    0.0000 O   0  0  0  0  0  0  0  0  0  0  0  0
   22.3961  -12.5738    0.0000 C   0  0  0  0  0  0  0  0  0  0  0  0
   23.8515  -12.9367    0.0000 C   0  0  0  0  0  0  0  0  0  0  0  0
   22.1873  -14.0592    0.0000 C   0  0  0  0  0  0  0  0  0  0  0  0
  1  2  1  0
  2  3  1  0
  2  4  1  0
  4  5  1  0
  5  6  1  0
  6  7  2  0
  7  8  1  0
  8  9  2  0
  9 10  1  0
 10 11  1  0
 11 12  1  0
 12 13  2  0
 13 14  1  0
 14 15  2  0
 15 16  1  0
 16 17  2  0
 16 18  2  0
 16 19  1  0
 19 20  2  0
 20 21  1  0
 21 22  2  0
 22 23  1  0
 23 24  1  0
 24 25  1  0
 25 26  2  0
 26 27  1  0
 27 28  2  0
 28 29  1  0
 29 30  2  0
 30 31  1  0
 24 32  1  0
 32 33  2  0
 32 34  1  0
 34 35  1  0
 35 36  2  0
 36 37  1  0
 37 38  2  0
 38 39  1  0
 39 40  2  0
 40 41  1  0
 41 42  2  0
 42 43  1  0
 43 44  2  0
 44 45  1  0
 45 46  2  0
 22 47  1  0
 47 48  2  0
 15 49  1  0
 49 50  2  0
 10 51  1  0
 51 52  2  0
 51 53  1  0
 53 54  1  0
 54 55  2  0
 55 56  1  0
 56 57  2  0
 57 58  1  0
 58 59  2  0
 59 60  1  0
 60 61  2  0
 61 62  1  0
 62 63  2  0
 63 64  1  0
 64 65  2  0
  9 66  1  0
 66 67  1  0
 66 68  2  0
  5 69  1  0
 69 70  1  0
 70 71  1  0
 70 72  1  0
 70  2  1  0
 68  6  1  0
 50 12  1  0
 65 51  1  0
 48 19  1  0
 59 54  1  0
 65 60  1  0
 30 25  1  0
 46 32  1  0
 40 35  1  0
 46 41  1  0
M  END
>  <Candidate_ID>  (179) 
CAND_R2_179

>  <Candidate_Name>  (179) 
DSD-pinacol-boronate

>  <Parent_Seed_ID>  (179) 
TRAIN_077

>  <Parent_Name>  (179) 
DSD

>  <Transformation_Code>  (179) 
pinacol_boronate

>  <Design_Family>  (179) 
P-N-B-S

>  <Preparation_Type>  (179) 
Additive

>  <Synthesis_Level>  (179) 
B

>  <Parent_Tanimoto_r3>  (179) 
0.7368421052631579

>  <Max_Train_Tanimoto_r3>  (179) 
0.7368421052631579

>  <Risk_Flags>  (179) 
none

$$$$
CAND_R2_180 | DSD-trimethoxysilyl
     RDKit          2D

 70 79  0  0  0  0  0  0  0  0999 V2000
   23.0422  -10.6284    0.0000 C   0  0  0  0  0  0  0  0  0  0  0  0
   21.8931  -11.5926    0.0000 O   0  0  0  0  0  0  0  0  0  0  0  0
   20.4835  -11.0795    0.0000 Si  0  0  0  0  0  4  0  0  0  0  0  0
   19.9705  -12.4891    0.0000 O   0  0  0  0  0  0  0  0  0  0  0  0
   20.9347  -13.6381    0.0000 C   0  0  0  0  0  0  0  0  0  0  0  0
   20.9966   -9.6700    0.0000 O   0  0  0  0  0  0  0  0  0  0  0  0
   22.4738   -9.4095    0.0000 C   0  0  0  0  0  0  0  0  0  0  0  0
   19.0740  -10.5665    0.0000 C   0  0  0  0  0  0  0  0  0  0  0  0
   17.9249  -11.5307    0.0000 C   0  0  0  0  0  0  0  0  0  0  0  0
   16.5154  -11.0177    0.0000 C   0  0  0  0  0  0  0  0  0  0  0  0
   16.2549   -9.5404    0.0000 C   0  0  0  0  0  0  0  0  0  0  0  0
   14.8454   -9.0274    0.0000 C   0  0  0  0  0  0  0  0  0  0  0  0
   14.5849   -7.5502    0.0000 N   0  0  0  0  0  0  0  0  0  0  0  0
   13.1754   -7.0372    0.0000 C   0  0  0  0  0  0  0  0  0  0  0  0
   12.9149   -5.5600    0.0000 C   0  0  0  0  0  0  0  0  0  0  0  0
   11.5054   -5.0469    0.0000 C   0  0  0  0  0  0  0  0  0  0  0  0
   10.3563   -6.0111    0.0000 C   0  0  0  0  0  0  0  0  0  0  0  0
    8.9468   -5.4981    0.0000 S   0  0  0  0  0  0  0  0  0  0  0  0
    8.4337   -6.9076    0.0000 O   0  0  0  0  0  0  0  0  0  0  0  0
    9.4598   -4.0885    0.0000 O   0  0  0  0  0  0  0  0  0  0  0  0
    7.5372   -4.9851    0.0000 C   0  0  0  0  0  0  0  0  0  0  0  0
    7.2768   -3.5078    0.0000 C   0  0  0  0  0  0  0  0  0  0  0  0
    5.8672   -2.9948    0.0000 C   0  0  0  0  0  0  0  0  0  0  0  0
    4.7181   -3.9590    0.0000 C   0  0  0  0  0  0  0  0  0  0  0  0
    3.3086   -3.4460    0.0000 N   0  0  0  0  0  0  0  0  0  0  0  0
    3.0481   -1.9688    0.0000 C   0  0  0  0  0  0  0  0  0  0  0  0
    4.1972   -1.0046    0.0000 C   0  0  0  0  0  0  0  0  0  0  0  0
    5.6067   -1.5176    0.0000 C   0  0  0  0  0  0  0  0  0  0  0  0
    6.7558   -0.5534    0.0000 C   0  0  0  0  0  0  0  0  0  0  0  0
    6.4953    0.9238    0.0000 C   0  0  0  0  0  0  0  0  0  0  0  0
    5.0858    1.4368    0.0000 C   0  0  0  0  0  0  0  0  0  0  0  0
    3.9367    0.4726    0.0000 C   0  0  0  0  0  0  0  0  0  0  0  0
    2.5272    0.9857    0.0000 O   0  0  0  0  0  0  0  0  0  0  0  0
    1.6386   -1.4557    0.0000 P   0  0  0  0  0  0  0  0  0  0  0  0
    2.3886   -0.1567    0.0000 O   0  0  0  0  0  0  0  0  0  0  0  0
    1.3781   -2.9329    0.0000 O   0  0  0  0  0  0  0  0  0  0  0  0
   -0.0314   -3.4460    0.0000 C   0  0  0  0  0  0  0  0  0  0  0  0
   -0.2919   -4.9232    0.0000 C   0  0  0  0  0  0  0  0  0  0  0  0
   -1.7014   -5.4362    0.0000 C   0  0  0  0  0  0  0  0  0  0  0  0
   -2.8505   -4.4720    0.0000 C   0  0  0  0  0  0  0  0  0  0  0  0
   -2.5900   -2.9948    0.0000 C   0  0  0  0  0  0  0  0  0  0  0  0
   -1.1805   -2.4818    0.0000 C   0  0  0  0  0  0  0  0  0  0  0  0
   -0.9200   -1.0046    0.0000 C   0  0  0  0  0  0  0  0  0  0  0  0
   -2.0691   -0.0404    0.0000 C   0  0  0  0  0  0  0  0  0  0  0  0
   -1.8086    1.4368    0.0000 C   0  0  0  0  0  0  0  0  0  0  0  0
   -0.3991    1.9499    0.0000 C   0  0  0  0  0  0  0  0  0  0  0  0
    0.7500    0.9857    0.0000 C   0  0  0  0  0  0  0  0  0  0  0  0
    0.4895   -0.4915    0.0000 C   0  0  0  0  0  0  0  0  0  0  0  0
    4.9786   -5.4362    0.0000 C   0  0  0  0  0  0  0  0  0  0  0  0
    6.3882   -5.9492    0.0000 C   0  0  0  0  0  0  0  0  0  0  0  0
   10.6168   -7.4883    0.0000 C   0  0  0  0  0  0  0  0  0  0  0  0
   12.0263   -8.0014    0.0000 C   0  0  0  0  0  0  0  0  0  0  0  0
   13.6963   -9.9916    0.0000 P   0  0  0  0  0  0  0  0  0  0  0  0
   12.9463   -8.6926    0.0000 O   0  0  0  0  0  0  0  0  0  0  0  0
   14.8454  -10.9558    0.0000 O   0  0  0  0  0  0  0  0  0  0  0  0
   14.5849  -12.4330    0.0000 C   0  0  0  0  0  0  0  0  0  0  0  0
   15.7340  -13.3972    0.0000 C   0  0  0  0  0  0  0  0  0  0  0  0
   15.4735  -14.8744    0.0000 C   0  0  0  0  0  0  0  0  0  0  0  0
   14.0640  -15.3874    0.0000 C   0  0  0  0  0  0  0  0  0  0  0  0
   12.9149  -14.4232    0.0000 C   0  0  0  0  0  0  0  0  0  0  0  0
   13.1754  -12.9460    0.0000 C   0  0  0  0  0  0  0  0  0  0  0  0
   12.0263  -11.9818    0.0000 C   0  0  0  0  0  0  0  0  0  0  0  0
   10.6168  -12.4949    0.0000 C   0  0  0  0  0  0  0  0  0  0  0  0
    9.4677  -11.5307    0.0000 C   0  0  0  0  0  0  0  0  0  0  0  0
    9.7282  -10.0535    0.0000 C   0  0  0  0  0  0  0  0  0  0  0  0
   11.1377   -9.5404    0.0000 C   0  0  0  0  0  0  0  0  0  0  0  0
   12.2868  -10.5046    0.0000 C   0  0  0  0  0  0  0  0  0  0  0  0
   17.4040   -8.5763    0.0000 C   0  0  0  0  0  0  0  0  0  0  0  0
   17.1435   -7.0991    0.0000 O   0  0  0  0  0  0  0  0  0  0  0  0
   18.8135   -9.0893    0.0000 C   0  0  0  0  0  0  0  0  0  0  0  0
  1  2  1  0
  2  3  1  0
  3  4  1  0
  4  5  1  0
  3  6  1  0
  6  7  1  0
  3  8  1  0
  8  9  2  0
  9 10  1  0
 10 11  2  0
 11 12  1  0
 12 13  1  0
 13 14  1  0
 14 15  2  0
 15 16  1  0
 16 17  2  0
 17 18  1  0
 18 19  2  0
 18 20  2  0
 18 21  1  0
 21 22  2  0
 22 23  1  0
 23 24  2  0
 24 25  1  0
 25 26  1  0
 26 27  1  0
 27 28  2  0
 28 29  1  0
 29 30  2  0
 30 31  1  0
 31 32  2  0
 32 33  1  0
 26 34  1  0
 34 35  2  0
 34 36  1  0
 36 37  1  0
 37 38  2  0
 38 39  1  0
 39 40  2  0
 40 41  1  0
 41 42  2  0
 42 43  1  0
 43 44  2  0
 44 45  1  0
 45 46  2  0
 46 47  1  0
 47 48  2  0
 24 49  1  0
 49 50  2  0
 17 51  1  0
 51 52  2  0
 12 53  1  0
 53 54  2  0
 53 55  1  0
 55 56  1  0
 56 57  2  0
 57 58  1  0
 58 59  2  0
 59 60  1  0
 60 61  2  0
 61 62  1  0
 62 63  2  0
 63 64  1  0
 64 65  2  0
 65 66  1  0
 66 67  2  0
 11 68  1  0
 68 69  1  0
 68 70  2  0
 70  8  1  0
 52 14  1  0
 67 53  1  0
 50 21  1  0
 61 56  1  0
 67 62  1  0
 32 27  1  0
 48 34  1  0
 42 37  1  0
 48 43  1  0
M  END
>  <Candidate_ID>  (180) 
CAND_R2_180

>  <Candidate_Name>  (180) 
DSD-trimethoxysilyl

>  <Parent_Seed_ID>  (180) 
TRAIN_077

>  <Parent_Name>  (180) 
DSD

>  <Transformation_Code>  (180) 
trimethoxysilyl

>  <Design_Family>  (180) 
P-N-Si-S

>  <Preparation_Type>  (180) 
Additive + Secondary Crosslinking

>  <Synthesis_Level>  (180) 
B

>  <Parent_Tanimoto_r3>  (180) 
0.7692307692307693

>  <Max_Train_Tanimoto_r3>  (180) 
0.7692307692307693

>  <Risk_Flags>  (180) 
none

$$$$
CAND_R2_181 | DSD-triethoxysilyl
     RDKit          2D

 73 82  0  0  0  0  0  0  0  0999 V2000
   24.4517  -11.1414    0.0000 C   0  0  0  0  0  0  0  0  0  0  0  0
   23.0422  -10.6284    0.0000 C   0  0  0  0  0  0  0  0  0  0  0  0
   21.8931  -11.5926    0.0000 O   0  0  0  0  0  0  0  0  0  0  0  0
   20.4835  -11.0795    0.0000 Si  0  0  0  0  0  4  0  0  0  0  0  0
   19.9705  -12.4891    0.0000 O   0  0  0  0  0  0  0  0  0  0  0  0
   20.9347  -13.6381    0.0000 C   0  0  0  0  0  0  0  0  0  0  0  0
   20.4217  -15.0477    0.0000 C   0  0  0  0  0  0  0  0  0  0  0  0
   20.9966   -9.6700    0.0000 O   0  0  0  0  0  0  0  0  0  0  0  0
   22.4738   -9.4095    0.0000 C   0  0  0  0  0  0  0  0  0  0  0  0
   22.9868   -8.0000    0.0000 C   0  0  0  0  0  0  0  0  0  0  0  0
   19.0740  -10.5665    0.0000 C   0  0  0  0  0  0  0  0  0  0  0  0
   17.9249  -11.5307    0.0000 C   0  0  0  0  0  0  0  0  0  0  0  0
   16.5154  -11.0177    0.0000 C   0  0  0  0  0  0  0  0  0  0  0  0
   16.2549   -9.5404    0.0000 C   0  0  0  0  0  0  0  0  0  0  0  0
   14.8454   -9.0274    0.0000 C   0  0  0  0  0  0  0  0  0  0  0  0
   14.5849   -7.5502    0.0000 N   0  0  0  0  0  0  0  0  0  0  0  0
   13.1754   -7.0372    0.0000 C   0  0  0  0  0  0  0  0  0  0  0  0
   12.9149   -5.5600    0.0000 C   0  0  0  0  0  0  0  0  0  0  0  0
   11.5054   -5.0469    0.0000 C   0  0  0  0  0  0  0  0  0  0  0  0
   10.3563   -6.0111    0.0000 C   0  0  0  0  0  0  0  0  0  0  0  0
    8.9468   -5.4981    0.0000 S   0  0  0  0  0  0  0  0  0  0  0  0
    8.4337   -6.9076    0.0000 O   0  0  0  0  0  0  0  0  0  0  0  0
    9.4598   -4.0885    0.0000 O   0  0  0  0  0  0  0  0  0  0  0  0
    7.5372   -4.9851    0.0000 C   0  0  0  0  0  0  0  0  0  0  0  0
    7.2768   -3.5078    0.0000 C   0  0  0  0  0  0  0  0  0  0  0  0
    5.8672   -2.9948    0.0000 C   0  0  0  0  0  0  0  0  0  0  0  0
    4.7181   -3.9590    0.0000 C   0  0  0  0  0  0  0  0  0  0  0  0
    3.3086   -3.4460    0.0000 N   0  0  0  0  0  0  0  0  0  0  0  0
    3.0481   -1.9688    0.0000 C   0  0  0  0  0  0  0  0  0  0  0  0
    4.1972   -1.0046    0.0000 C   0  0  0  0  0  0  0  0  0  0  0  0
    5.6067   -1.5176    0.0000 C   0  0  0  0  0  0  0  0  0  0  0  0
    6.7558   -0.5534    0.0000 C   0  0  0  0  0  0  0  0  0  0  0  0
    6.4953    0.9238    0.0000 C   0  0  0  0  0  0  0  0  0  0  0  0
    5.0858    1.4368    0.0000 C   0  0  0  0  0  0  0  0  0  0  0  0
    3.9367    0.4726    0.0000 C   0  0  0  0  0  0  0  0  0  0  0  0
    2.5272    0.9857    0.0000 O   0  0  0  0  0  0  0  0  0  0  0  0
    1.6386   -1.4557    0.0000 P   0  0  0  0  0  0  0  0  0  0  0  0
    2.3886   -0.1567    0.0000 O   0  0  0  0  0  0  0  0  0  0  0  0
    1.3781   -2.9329    0.0000 O   0  0  0  0  0  0  0  0  0  0  0  0
   -0.0314   -3.4460    0.0000 C   0  0  0  0  0  0  0  0  0  0  0  0
   -0.2919   -4.9232    0.0000 C   0  0  0  0  0  0  0  0  0  0  0  0
   -1.7014   -5.4362    0.0000 C   0  0  0  0  0  0  0  0  0  0  0  0
   -2.8505   -4.4720    0.0000 C   0  0  0  0  0  0  0  0  0  0  0  0
   -2.5900   -2.9948    0.0000 C   0  0  0  0  0  0  0  0  0  0  0  0
   -1.1805   -2.4818    0.0000 C   0  0  0  0  0  0  0  0  0  0  0  0
   -0.9200   -1.0046    0.0000 C   0  0  0  0  0  0  0  0  0  0  0  0
   -2.0691   -0.0404    0.0000 C   0  0  0  0  0  0  0  0  0  0  0  0
   -1.8086    1.4368    0.0000 C   0  0  0  0  0  0  0  0  0  0  0  0
   -0.3991    1.9499    0.0000 C   0  0  0  0  0  0  0  0  0  0  0  0
    0.7500    0.9857    0.0000 C   0  0  0  0  0  0  0  0  0  0  0  0
    0.4895   -0.4915    0.0000 C   0  0  0  0  0  0  0  0  0  0  0  0
    4.9786   -5.4362    0.0000 C   0  0  0  0  0  0  0  0  0  0  0  0
    6.3882   -5.9492    0.0000 C   0  0  0  0  0  0  0  0  0  0  0  0
   10.6168   -7.4883    0.0000 C   0  0  0  0  0  0  0  0  0  0  0  0
   12.0263   -8.0014    0.0000 C   0  0  0  0  0  0  0  0  0  0  0  0
   13.6963   -9.9916    0.0000 P   0  0  0  0  0  0  0  0  0  0  0  0
   12.9463   -8.6926    0.0000 O   0  0  0  0  0  0  0  0  0  0  0  0
   14.8454  -10.9558    0.0000 O   0  0  0  0  0  0  0  0  0  0  0  0
   14.5849  -12.4330    0.0000 C   0  0  0  0  0  0  0  0  0  0  0  0
   15.7340  -13.3972    0.0000 C   0  0  0  0  0  0  0  0  0  0  0  0
   15.4735  -14.8744    0.0000 C   0  0  0  0  0  0  0  0  0  0  0  0
   14.0640  -15.3874    0.0000 C   0  0  0  0  0  0  0  0  0  0  0  0
   12.9149  -14.4232    0.0000 C   0  0  0  0  0  0  0  0  0  0  0  0
   13.1754  -12.9460    0.0000 C   0  0  0  0  0  0  0  0  0  0  0  0
   12.0263  -11.9818    0.0000 C   0  0  0  0  0  0  0  0  0  0  0  0
   10.6168  -12.4949    0.0000 C   0  0  0  0  0  0  0  0  0  0  0  0
    9.4677  -11.5307    0.0000 C   0  0  0  0  0  0  0  0  0  0  0  0
    9.7282  -10.0535    0.0000 C   0  0  0  0  0  0  0  0  0  0  0  0
   11.1377   -9.5404    0.0000 C   0  0  0  0  0  0  0  0  0  0  0  0
   12.2868  -10.5046    0.0000 C   0  0  0  0  0  0  0  0  0  0  0  0
   17.4040   -8.5763    0.0000 C   0  0  0  0  0  0  0  0  0  0  0  0
   17.1435   -7.0991    0.0000 O   0  0  0  0  0  0  0  0  0  0  0  0
   18.8135   -9.0893    0.0000 C   0  0  0  0  0  0  0  0  0  0  0  0
  1  2  1  0
  2  3  1  0
  3  4  1  0
  4  5  1  0
  5  6  1  0
  6  7  1  0
  4  8  1  0
  8  9  1  0
  9 10  1  0
  4 11  1  0
 11 12  2  0
 12 13  1  0
 13 14  2  0
 14 15  1  0
 15 16  1  0
 16 17  1  0
 17 18  2  0
 18 19  1  0
 19 20  2  0
 20 21  1  0
 21 22  2  0
 21 23  2  0
 21 24  1  0
 24 25  2  0
 25 26  1  0
 26 27  2  0
 27 28  1  0
 28 29  1  0
 29 30  1  0
 30 31  2  0
 31 32  1  0
 32 33  2  0
 33 34  1  0
 34 35  2  0
 35 36  1  0
 29 37  1  0
 37 38  2  0
 37 39  1  0
 39 40  1  0
 40 41  2  0
 41 42  1  0
 42 43  2  0
 43 44  1  0
 44 45  2  0
 45 46  1  0
 46 47  2  0
 47 48  1  0
 48 49  2  0
 49 50  1  0
 50 51  2  0
 27 52  1  0
 52 53  2  0
 20 54  1  0
 54 55  2  0
 15 56  1  0
 56 57  2  0
 56 58  1  0
 58 59  1  0
 59 60  2  0
 60 61  1  0
 61 62  2  0
 62 63  1  0
 63 64  2  0
 64 65  1  0
 65 66  2  0
 66 67  1  0
 67 68  2  0
 68 69  1  0
 69 70  2  0
 14 71  1  0
 71 72  1  0
 71 73  2  0
 73 11  1  0
 55 17  1  0
 70 56  1  0
 53 24  1  0
 64 59  1  0
 70 65  1  0
 35 30  1  0
 51 37  1  0
 45 40  1  0
 51 46  1  0
M  END
>  <Candidate_ID>  (181) 
CAND_R2_181

>  <Candidate_Name>  (181) 
DSD-triethoxysilyl

>  <Parent_Seed_ID>  (181) 
TRAIN_077

>  <Parent_Name>  (181) 
DSD

>  <Transformation_Code>  (181) 
triethoxysilyl

>  <Design_Family>  (181) 
P-N-Si-S

>  <Preparation_Type>  (181) 
Additive + Secondary Crosslinking

>  <Synthesis_Level>  (181) 
B

>  <Parent_Tanimoto_r3>  (181) 
0.7368421052631579

>  <Max_Train_Tanimoto_r3>  (181) 
0.7368421052631579

>  <Risk_Flags>  (181) 
none

$$$$
CAND_R2_182 | DSD-disiloxane
     RDKit          2D

 71 80  0  0  0  0  0  0  0  0999 V2000
   24.0063  -11.7775    0.0000 C   0  0  0  0  0  0  0  0  0  0  0  0
   23.0422  -10.6284    0.0000 Si  0  0  0  0  0  4  0  0  0  0  0  0
   22.0780   -9.4793    0.0000 C   0  0  0  0  0  0  0  0  0  0  0  0
   24.1912   -9.6642    0.0000 C   0  0  0  0  0  0  0  0  0  0  0  0
   21.8931  -11.5926    0.0000 O   0  0  0  0  0  0  0  0  0  0  0  0
   20.4835  -11.0795    0.0000 Si  0  0  0  0  0  4  0  0  0  0  0  0
   20.9966   -9.6700    0.0000 C   0  0  0  0  0  0  0  0  0  0  0  0
   19.9705  -12.4891    0.0000 C   0  0  0  0  0  0  0  0  0  0  0  0
   19.0740  -10.5665    0.0000 C   0  0  0  0  0  0  0  0  0  0  0  0
   17.9249  -11.5307    0.0000 C   0  0  0  0  0  0  0  0  0  0  0  0
   16.5154  -11.0177    0.0000 C   0  0  0  0  0  0  0  0  0  0  0  0
   16.2549   -9.5404    0.0000 C   0  0  0  0  0  0  0  0  0  0  0  0
   14.8454   -9.0274    0.0000 C   0  0  0  0  0  0  0  0  0  0  0  0
   14.5849   -7.5502    0.0000 N   0  0  0  0  0  0  0  0  0  0  0  0
   13.1754   -7.0372    0.0000 C   0  0  0  0  0  0  0  0  0  0  0  0
   12.9149   -5.5600    0.0000 C   0  0  0  0  0  0  0  0  0  0  0  0
   11.5054   -5.0469    0.0000 C   0  0  0  0  0  0  0  0  0  0  0  0
   10.3563   -6.0111    0.0000 C   0  0  0  0  0  0  0  0  0  0  0  0
    8.9468   -5.4981    0.0000 S   0  0  0  0  0  0  0  0  0  0  0  0
    8.4337   -6.9076    0.0000 O   0  0  0  0  0  0  0  0  0  0  0  0
    9.4598   -4.0885    0.0000 O   0  0  0  0  0  0  0  0  0  0  0  0
    7.5372   -4.9851    0.0000 C   0  0  0  0  0  0  0  0  0  0  0  0
    7.2768   -3.5078    0.0000 C   0  0  0  0  0  0  0  0  0  0  0  0
    5.8672   -2.9948    0.0000 C   0  0  0  0  0  0  0  0  0  0  0  0
    4.7181   -3.9590    0.0000 C   0  0  0  0  0  0  0  0  0  0  0  0
    3.3086   -3.4460    0.0000 N   0  0  0  0  0  0  0  0  0  0  0  0
    3.0481   -1.9688    0.0000 C   0  0  0  0  0  0  0  0  0  0  0  0
    4.1972   -1.0046    0.0000 C   0  0  0  0  0  0  0  0  0  0  0  0
    5.6067   -1.5176    0.0000 C   0  0  0  0  0  0  0  0  0  0  0  0
    6.7558   -0.5534    0.0000 C   0  0  0  0  0  0  0  0  0  0  0  0
    6.4953    0.9238    0.0000 C   0  0  0  0  0  0  0  0  0  0  0  0
    5.0858    1.4368    0.0000 C   0  0  0  0  0  0  0  0  0  0  0  0
    3.9367    0.4726    0.0000 C   0  0  0  0  0  0  0  0  0  0  0  0
    2.5272    0.9857    0.0000 O   0  0  0  0  0  0  0  0  0  0  0  0
    1.6386   -1.4557    0.0000 P   0  0  0  0  0  0  0  0  0  0  0  0
    2.3886   -0.1567    0.0000 O   0  0  0  0  0  0  0  0  0  0  0  0
    1.3781   -2.9329    0.0000 O   0  0  0  0  0  0  0  0  0  0  0  0
   -0.0314   -3.4460    0.0000 C   0  0  0  0  0  0  0  0  0  0  0  0
   -0.2919   -4.9232    0.0000 C   0  0  0  0  0  0  0  0  0  0  0  0
   -1.7014   -5.4362    0.0000 C   0  0  0  0  0  0  0  0  0  0  0  0
   -2.8505   -4.4720    0.0000 C   0  0  0  0  0  0  0  0  0  0  0  0
   -2.5900   -2.9948    0.0000 C   0  0  0  0  0  0  0  0  0  0  0  0
   -1.1805   -2.4818    0.0000 C   0  0  0  0  0  0  0  0  0  0  0  0
   -0.9200   -1.0046    0.0000 C   0  0  0  0  0  0  0  0  0  0  0  0
   -2.0691   -0.0404    0.0000 C   0  0  0  0  0  0  0  0  0  0  0  0
   -1.8086    1.4368    0.0000 C   0  0  0  0  0  0  0  0  0  0  0  0
   -0.3991    1.9499    0.0000 C   0  0  0  0  0  0  0  0  0  0  0  0
    0.7500    0.9857    0.0000 C   0  0  0  0  0  0  0  0  0  0  0  0
    0.4895   -0.4915    0.0000 C   0  0  0  0  0  0  0  0  0  0  0  0
    4.9786   -5.4362    0.0000 C   0  0  0  0  0  0  0  0  0  0  0  0
    6.3882   -5.9492    0.0000 C   0  0  0  0  0  0  0  0  0  0  0  0
   10.6168   -7.4883    0.0000 C   0  0  0  0  0  0  0  0  0  0  0  0
   12.0263   -8.0014    0.0000 C   0  0  0  0  0  0  0  0  0  0  0  0
   13.6963   -9.9916    0.0000 P   0  0  0  0  0  0  0  0  0  0  0  0
   12.9463   -8.6926    0.0000 O   0  0  0  0  0  0  0  0  0  0  0  0
   14.8454  -10.9558    0.0000 O   0  0  0  0  0  0  0  0  0  0  0  0
   14.5849  -12.4330    0.0000 C   0  0  0  0  0  0  0  0  0  0  0  0
   15.7340  -13.3972    0.0000 C   0  0  0  0  0  0  0  0  0  0  0  0
   15.4735  -14.8744    0.0000 C   0  0  0  0  0  0  0  0  0  0  0  0
   14.0640  -15.3874    0.0000 C   0  0  0  0  0  0  0  0  0  0  0  0
   12.9149  -14.4232    0.0000 C   0  0  0  0  0  0  0  0  0  0  0  0
   13.1754  -12.9460    0.0000 C   0  0  0  0  0  0  0  0  0  0  0  0
   12.0263  -11.9818    0.0000 C   0  0  0  0  0  0  0  0  0  0  0  0
   10.6168  -12.4949    0.0000 C   0  0  0  0  0  0  0  0  0  0  0  0
    9.4677  -11.5307    0.0000 C   0  0  0  0  0  0  0  0  0  0  0  0
    9.7282  -10.0535    0.0000 C   0  0  0  0  0  0  0  0  0  0  0  0
   11.1377   -9.5404    0.0000 C   0  0  0  0  0  0  0  0  0  0  0  0
   12.2868  -10.5046    0.0000 C   0  0  0  0  0  0  0  0  0  0  0  0
   17.4040   -8.5763    0.0000 C   0  0  0  0  0  0  0  0  0  0  0  0
   17.1435   -7.0991    0.0000 O   0  0  0  0  0  0  0  0  0  0  0  0
   18.8135   -9.0893    0.0000 C   0  0  0  0  0  0  0  0  0  0  0  0
  1  2  1  0
  2  3  1  0
  2  4  1  0
  2  5  1  0
  5  6  1  0
  6  7  1  0
  6  8  1  0
  6  9  1  0
  9 10  2  0
 10 11  1  0
 11 12  2  0
 12 13  1  0
 13 14  1  0
 14 15  1  0
 15 16  2  0
 16 17  1  0
 17 18  2  0
 18 19  1  0
 19 20  2  0
 19 21  2  0
 19 22  1  0
 22 23  2  0
 23 24  1  0
 24 25  2  0
 25 26  1  0
 26 27  1  0
 27 28  1  0
 28 29  2  0
 29 30  1  0
 30 31  2  0
 31 32  1  0
 32 33  2  0
 33 34  1  0
 27 35  1  0
 35 36  2  0
 35 37  1  0
 37 38  1  0
 38 39  2  0
 39 40  1  0
 40 41  2  0
 41 42  1  0
 42 43  2  0
 43 44  1  0
 44 45  2  0
 45 46  1  0
 46 47  2  0
 47 48  1  0
 48 49  2  0
 25 50  1  0
 50 51  2  0
 18 52  1  0
 52 53  2  0
 13 54  1  0
 54 55  2  0
 54 56  1  0
 56 57  1  0
 57 58  2  0
 58 59  1  0
 59 60  2  0
 60 61  1  0
 61 62  2  0
 62 63  1  0
 63 64  2  0
 64 65  1  0
 65 66  2  0
 66 67  1  0
 67 68  2  0
 12 69  1  0
 69 70  1  0
 69 71  2  0
 71  9  1  0
 53 15  1  0
 68 54  1  0
 51 22  1  0
 62 57  1  0
 68 63  1  0
 33 28  1  0
 49 35  1  0
 43 38  1  0
 49 44  1  0
M  END
>  <Candidate_ID>  (182) 
CAND_R2_182

>  <Candidate_Name>  (182) 
DSD-disiloxane

>  <Parent_Seed_ID>  (182) 
TRAIN_077

>  <Parent_Name>  (182) 
DSD

>  <Transformation_Code>  (182) 
disiloxane

>  <Design_Family>  (182) 
P-N-Si-S

>  <Preparation_Type>  (182) 
Additive

>  <Synthesis_Level>  (182) 
B

>  <Parent_Tanimoto_r3>  (182) 
0.7526881720430108

>  <Max_Train_Tanimoto_r3>  (182) 
0.7526881720430108

>  <Risk_Flags>  (182) 
none

$$$$
CAND_R2_183 | DSD-glycidyloxy
     RDKit          2D

 68 78  0  0  0  0  0  0  0  0999 V2000
   12.9463   -8.6926    0.0000 O   0  0  0  0  0  0  0  0  0  0  0  0
   13.6963   -9.9916    0.0000 P   0  0  0  0  0  0  0  0  0  0  0  0
   14.8454   -9.0274    0.0000 C   0  0  0  0  0  0  0  0  0  0  0  0
   14.5849   -7.5502    0.0000 N   0  0  0  0  0  0  0  0  0  0  0  0
   13.1754   -7.0372    0.0000 C   0  0  0  0  0  0  0  0  0  0  0  0
   12.9149   -5.5600    0.0000 C   0  0  0  0  0  0  0  0  0  0  0  0
   11.5054   -5.0469    0.0000 C   0  0  0  0  0  0  0  0  0  0  0  0
   10.3563   -6.0111    0.0000 C   0  0  0  0  0  0  0  0  0  0  0  0
    8.9468   -5.4981    0.0000 S   0  0  0  0  0  0  0  0  0  0  0  0
    9.4598   -4.0885    0.0000 O   0  0  0  0  0  0  0  0  0  0  0  0
    8.4337   -6.9076    0.0000 O   0  0  0  0  0  0  0  0  0  0  0  0
    7.5372   -4.9851    0.0000 C   0  0  0  0  0  0  0  0  0  0  0  0
    7.2768   -3.5078    0.0000 C   0  0  0  0  0  0  0  0  0  0  0  0
    5.8672   -2.9948    0.0000 C   0  0  0  0  0  0  0  0  0  0  0  0
    4.7181   -3.9590    0.0000 C   0  0  0  0  0  0  0  0  0  0  0  0
    3.3086   -3.4460    0.0000 N   0  0  0  0  0  0  0  0  0  0  0  0
    3.0481   -1.9688    0.0000 C   0  0  0  0  0  0  0  0  0  0  0  0
    4.1972   -1.0046    0.0000 C   0  0  0  0  0  0  0  0  0  0  0  0
    5.6067   -1.5176    0.0000 C   0  0  0  0  0  0  0  0  0  0  0  0
    6.7558   -0.5534    0.0000 C   0  0  0  0  0  0  0  0  0  0  0  0
    6.4953    0.9238    0.0000 C   0  0  0  0  0  0  0  0  0  0  0  0
    7.6444    1.8880    0.0000 O   0  0  0  0  0  0  0  0  0  0  0  0
    9.0539    1.3749    0.0000 C   0  0  0  0  0  0  0  0  0  0  0  0
   10.2030    2.3391    0.0000 C   0  0  0  0  0  0  0  0  0  0  0  0
   10.7160    3.7487    0.0000 C   0  0  0  0  0  0  0  0  0  0  0  0
   11.6802    2.5996    0.0000 O   0  0  0  0  0  0  0  0  0  0  0  0
    5.0858    1.4368    0.0000 C   0  0  0  0  0  0  0  0  0  0  0  0
    3.9367    0.4726    0.0000 C   0  0  0  0  0  0  0  0  0  0  0  0
    2.5272    0.9857    0.0000 O   0  0  0  0  0  0  0  0  0  0  0  0
    1.6386   -1.4557    0.0000 P   0  0  0  0  0  0  0  0  0  0  0  0
    2.3886   -0.1567    0.0000 O   0  0  0  0  0  0  0  0  0  0  0  0
    1.3781   -2.9329    0.0000 O   0  0  0  0  0  0  0  0  0  0  0  0
   -0.0314   -3.4460    0.0000 C   0  0  0  0  0  0  0  0  0  0  0  0
   -0.2919   -4.9232    0.0000 C   0  0  0  0  0  0  0  0  0  0  0  0
   -1.7014   -5.4362    0.0000 C   0  0  0  0  0  0  0  0  0  0  0  0
   -2.8505   -4.4720    0.0000 C   0  0  0  0  0  0  0  0  0  0  0  0
   -2.5900   -2.9948    0.0000 C   0  0  0  0  0  0  0  0  0  0  0  0
   -1.1805   -2.4818    0.0000 C   0  0  0  0  0  0  0  0  0  0  0  0
   -0.9200   -1.0046    0.0000 C   0  0  0  0  0  0  0  0  0  0  0  0
   -2.0691   -0.0404    0.0000 C   0  0  0  0  0  0  0  0  0  0  0  0
   -1.8086    1.4368    0.0000 C   0  0  0  0  0  0  0  0  0  0  0  0
   -0.3991    1.9499    0.0000 C   0  0  0  0  0  0  0  0  0  0  0  0
    0.7500    0.9857    0.0000 C   0  0  0  0  0  0  0  0  0  0  0  0
    0.4895   -0.4915    0.0000 C   0  0  0  0  0  0  0  0  0  0  0  0
    4.9786   -5.4362    0.0000 C   0  0  0  0  0  0  0  0  0  0  0  0
    6.3882   -5.9492    0.0000 C   0  0  0  0  0  0  0  0  0  0  0  0
   10.6168   -7.4883    0.0000 C   0  0  0  0  0  0  0  0  0  0  0  0
   12.0263   -8.0014    0.0000 C   0  0  0  0  0  0  0  0  0  0  0  0
   16.2549   -9.5404    0.0000 C   0  0  0  0  0  0  0  0  0  0  0  0
   16.5154  -11.0177    0.0000 C   0  0  0  0  0  0  0  0  0  0  0  0
   17.9249  -11.5307    0.0000 C   0  0  0  0  0  0  0  0  0  0  0  0
   19.0740  -10.5665    0.0000 C   0  0  0  0  0  0  0  0  0  0  0  0
   18.8135   -9.0893    0.0000 C   0  0  0  0  0  0  0  0  0  0  0  0
   17.4040   -8.5763    0.0000 C   0  0  0  0  0  0  0  0  0  0  0  0
   17.1435   -7.0991    0.0000 O   0  0  0  0  0  0  0  0  0  0  0  0
   14.8454  -10.9558    0.0000 O   0  0  0  0  0  0  0  0  0  0  0  0
   14.5849  -12.4330    0.0000 C   0  0  0  0  0  0  0  0  0  0  0  0
   15.7340  -13.3972    0.0000 C   0  0  0  0  0  0  0  0  0  0  0  0
   15.4735  -14.8744    0.0000 C   0  0  0  0  0  0  0  0  0  0  0  0
   14.0640  -15.3874    0.0000 C   0  0  0  0  0  0  0  0  0  0  0  0
   12.9149  -14.4232    0.0000 C   0  0  0  0  0  0  0  0  0  0  0  0
   13.1754  -12.9460    0.0000 C   0  0  0  0  0  0  0  0  0  0  0  0
   12.0263  -11.9818    0.0000 C   0  0  0  0  0  0  0  0  0  0  0  0
   10.6168  -12.4949    0.0000 C   0  0  0  0  0  0  0  0  0  0  0  0
    9.4677  -11.5307    0.0000 C   0  0  0  0  0  0  0  0  0  0  0  0
    9.7282  -10.0535    0.0000 C   0  0  0  0  0  0  0  0  0  0  0  0
   11.1377   -9.5404    0.0000 C   0  0  0  0  0  0  0  0  0  0  0  0
   12.2868  -10.5046    0.0000 C   0  0  0  0  0  0  0  0  0  0  0  0
  1  2  2  0
  2  3  1  0
  3  4  1  0
  4  5  1  0
  5  6  2  0
  6  7  1  0
  7  8  2  0
  8  9  1  0
  9 10  2  0
  9 11  2  0
  9 12  1  0
 12 13  2  0
 13 14  1  0
 14 15  2  0
 15 16  1  0
 16 17  1  0
 17 18  1  0
 18 19  2  0
 19 20  1  0
 20 21  2  0
 21 22  1  0
 22 23  1  0
 23 24  1  0
 24 25  1  0
 25 26  1  0
 21 27  1  0
 27 28  2  0
 28 29  1  0
 17 30  1  0
 30 31  2  0
 30 32  1  0
 32 33  1  0
 33 34  2  0
 34 35  1  0
 35 36  2  0
 36 37  1  0
 37 38  2  0
 38 39  1  0
 39 40  2  0
 40 41  1  0
 41 42  2  0
 42 43  1  0
 43 44  2  0
 15 45  1  0
 45 46  2  0
  8 47  1  0
 47 48  2  0
  3 49  1  0
 49 50  2  0
 50 51  1  0
 51 52  2  0
 52 53  1  0
 53 54  2  0
 54 55  1  0
  2 56  1  0
 56 57  1  0
 57 58  2  0
 58 59  1  0
 59 60  2  0
 60 61  1  0
 61 62  2  0
 62 63  1  0
 63 64  2  0
 64 65  1  0
 65 66  2  0
 66 67  1  0
 67 68  2  0
 68  2  1  0
 48  5  1  0
 54 49  1  0
 62 57  1  0
 68 63  1  0
 46 12  1  0
 28 18  1  0
 44 30  1  0
 26 24  1  0
 38 33  1  0
 44 39  1  0
M  END
>  <Candidate_ID>  (183) 
CAND_R2_183

>  <Candidate_Name>  (183) 
DSD-glycidyloxy

>  <Parent_Seed_ID>  (183) 
TRAIN_077

>  <Parent_Name>  (183) 
DSD

>  <Transformation_Code>  (183) 
glycidyloxy

>  <Design_Family>  (183) 
P-N-S

>  <Preparation_Type>  (183) 
Co-curing

>  <Synthesis_Level>  (183) 
B

>  <Parent_Tanimoto_r3>  (183) 
0.7291666666666666

>  <Max_Train_Tanimoto_r3>  (183) 
0.7291666666666666

>  <Risk_Flags>  (183) 
none

$$$$
CAND_R2_184 | DSD-diaminotriazine
     RDKit          2D

 71 81  0  0  0  0  0  0  0  0999 V2000
   24.1912   -9.6642    0.0000 N   0  0  0  0  0  0  0  0  0  0  0  0
   23.0422  -10.6284    0.0000 C   0  0  0  0  0  0  0  0  0  0  0  0
   23.3026  -12.1056    0.0000 N   0  0  0  0  0  0  0  0  0  0  0  0
   22.1536  -13.0698    0.0000 C   0  0  0  0  0  0  0  0  0  0  0  0
   22.4140  -14.5470    0.0000 N   0  0  0  0  0  0  0  0  0  0  0  0
   20.7440  -12.5567    0.0000 N   0  0  0  0  0  0  0  0  0  0  0  0
   20.4835  -11.0795    0.0000 C   0  0  0  0  0  0  0  0  0  0  0  0
   19.0740  -10.5665    0.0000 C   0  0  0  0  0  0  0  0  0  0  0  0
   18.8135   -9.0893    0.0000 C   0  0  0  0  0  0  0  0  0  0  0  0
   17.4040   -8.5763    0.0000 C   0  0  0  0  0  0  0  0  0  0  0  0
   16.2549   -9.5404    0.0000 C   0  0  0  0  0  0  0  0  0  0  0  0
   14.8454   -9.0274    0.0000 C   0  0  0  0  0  0  0  0  0  0  0  0
   14.5849   -7.5502    0.0000 N   0  0  0  0  0  0  0  0  0  0  0  0
   13.1754   -7.0372    0.0000 C   0  0  0  0  0  0  0  0  0  0  0  0
   12.9149   -5.5600    0.0000 C   0  0  0  0  0  0  0  0  0  0  0  0
   11.5054   -5.0469    0.0000 C   0  0  0  0  0  0  0  0  0  0  0  0
   10.3563   -6.0111    0.0000 C   0  0  0  0  0  0  0  0  0  0  0  0
    8.9468   -5.4981    0.0000 S   0  0  0  0  0  0  0  0  0  0  0  0
    8.4337   -6.9076    0.0000 O   0  0  0  0  0  0  0  0  0  0  0  0
    9.4598   -4.0885    0.0000 O   0  0  0  0  0  0  0  0  0  0  0  0
    7.5372   -4.9851    0.0000 C   0  0  0  0  0  0  0  0  0  0  0  0
    7.2768   -3.5078    0.0000 C   0  0  0  0  0  0  0  0  0  0  0  0
    5.8672   -2.9948    0.0000 C   0  0  0  0  0  0  0  0  0  0  0  0
    4.7181   -3.9590    0.0000 C   0  0  0  0  0  0  0  0  0  0  0  0
    3.3086   -3.4460    0.0000 N   0  0  0  0  0  0  0  0  0  0  0  0
    3.0481   -1.9688    0.0000 C   0  0  0  0  0  0  0  0  0  0  0  0
    4.1972   -1.0046    0.0000 C   0  0  0  0  0  0  0  0  0  0  0  0
    5.6067   -1.5176    0.0000 C   0  0  0  0  0  0  0  0  0  0  0  0
    6.7558   -0.5534    0.0000 C   0  0  0  0  0  0  0  0  0  0  0  0
    6.4953    0.9238    0.0000 C   0  0  0  0  0  0  0  0  0  0  0  0
    5.0858    1.4368    0.0000 C   0  0  0  0  0  0  0  0  0  0  0  0
    3.9367    0.4726    0.0000 C   0  0  0  0  0  0  0  0  0  0  0  0
    2.5272    0.9857    0.0000 O   0  0  0  0  0  0  0  0  0  0  0  0
    1.6386   -1.4557    0.0000 P   0  0  0  0  0  0  0  0  0  0  0  0
    2.3886   -0.1567    0.0000 O   0  0  0  0  0  0  0  0  0  0  0  0
    1.3781   -2.9329    0.0000 O   0  0  0  0  0  0  0  0  0  0  0  0
   -0.0314   -3.4460    0.0000 C   0  0  0  0  0  0  0  0  0  0  0  0
   -0.2919   -4.9232    0.0000 C   0  0  0  0  0  0  0  0  0  0  0  0
   -1.7014   -5.4362    0.0000 C   0  0  0  0  0  0  0  0  0  0  0  0
   -2.8505   -4.4720    0.0000 C   0  0  0  0  0  0  0  0  0  0  0  0
   -2.5900   -2.9948    0.0000 C   0  0  0  0  0  0  0  0  0  0  0  0
   -1.1805   -2.4818    0.0000 C   0  0  0  0  0  0  0  0  0  0  0  0
   -0.9200   -1.0046    0.0000 C   0  0  0  0  0  0  0  0  0  0  0  0
   -2.0691   -0.0404    0.0000 C   0  0  0  0  0  0  0  0  0  0  0  0
   -1.8086    1.4368    0.0000 C   0  0  0  0  0  0  0  0  0  0  0  0
   -0.3991    1.9499    0.0000 C   0  0  0  0  0  0  0  0  0  0  0  0
    0.7500    0.9857    0.0000 C   0  0  0  0  0  0  0  0  0  0  0  0
    0.4895   -0.4915    0.0000 C   0  0  0  0  0  0  0  0  0  0  0  0
    4.9786   -5.4362    0.0000 C   0  0  0  0  0  0  0  0  0  0  0  0
    6.3882   -5.9492    0.0000 C   0  0  0  0  0  0  0  0  0  0  0  0
   10.6168   -7.4883    0.0000 C   0  0  0  0  0  0  0  0  0  0  0  0
   12.0263   -8.0014    0.0000 C   0  0  0  0  0  0  0  0  0  0  0  0
   13.6963   -9.9916    0.0000 P   0  0  0  0  0  0  0  0  0  0  0  0
   12.9463   -8.6926    0.0000 O   0  0  0  0  0  0  0  0  0  0  0  0
   14.8454  -10.9558    0.0000 O   0  0  0  0  0  0  0  0  0  0  0  0
   14.5849  -12.4330    0.0000 C   0  0  0  0  0  0  0  0  0  0  0  0
   15.7340  -13.3972    0.0000 C   0  0  0  0  0  0  0  0  0  0  0  0
   15.4735  -14.8744    0.0000 C   0  0  0  0  0  0  0  0  0  0  0  0
   14.0640  -15.3874    0.0000 C   0  0  0  0  0  0  0  0  0  0  0  0
   12.9149  -14.4232    0.0000 C   0  0  0  0  0  0  0  0  0  0  0  0
   13.1754  -12.9460    0.0000 C   0  0  0  0  0  0  0  0  0  0  0  0
   12.0263  -11.9818    0.0000 C   0  0  0  0  0  0  0  0  0  0  0  0
   10.6168  -12.4949    0.0000 C   0  0  0  0  0  0  0  0  0  0  0  0
    9.4677  -11.5307    0.0000 C   0  0  0  0  0  0  0  0  0  0  0  0
    9.7282  -10.0535    0.0000 C   0  0  0  0  0  0  0  0  0  0  0  0
   11.1377   -9.5404    0.0000 C   0  0  0  0  0  0  0  0  0  0  0  0
   12.2868  -10.5046    0.0000 C   0  0  0  0  0  0  0  0  0  0  0  0
   16.5154  -11.0177    0.0000 C   0  0  0  0  0  0  0  0  0  0  0  0
   15.3663  -11.9818    0.0000 O   0  0  0  0  0  0  0  0  0  0  0  0
   17.9249  -11.5307    0.0000 C   0  0  0  0  0  0  0  0  0  0  0  0
   21.6326  -10.1154    0.0000 N   0  0  0  0  0  0  0  0  0  0  0  0
  1  2  1  0
  2  3  2  0
  3  4  1  0
  4  5  1  0
  4  6  2  0
  6  7  1  0
  7  8  1  0
  8  9  2  0
  9 10  1  0
 10 11  2  0
 11 12  1  0
 12 13  1  0
 13 14  1  0
 14 15  2  0
 15 16  1  0
 16 17  2  0
 17 18  1  0
 18 19  2  0
 18 20  2  0
 18 21  1  0
 21 22  2  0
 22 23  1  0
 23 24  2  0
 24 25  1  0
 25 26  1  0
 26 27  1  0
 27 28  2  0
 28 29  1  0
 29 30  2  0
 30 31  1  0
 31 32  2  0
 32 33  1  0
 26 34  1  0
 34 35  2  0
 34 36  1  0
 36 37  1  0
 37 38  2  0
 38 39  1  0
 39 40  2  0
 40 41  1  0
 41 42  2  0
 42 43  1  0
 43 44  2  0
 44 45  1  0
 45 46  2  0
 46 47  1  0
 47 48  2  0
 24 49  1  0
 49 50  2  0
 17 51  1  0
 51 52  2  0
 12 53  1  0
 53 54  2  0
 53 55  1  0
 55 56  1  0
 56 57  2  0
 57 58  1  0
 58 59  2  0
 59 60  1  0
 60 61  2  0
 61 62  1  0
 62 63  2  0
 63 64  1  0
 64 65  2  0
 65 66  1  0
 66 67  2  0
 11 68  1  0
 68 69  1  0
 68 70  2  0
  7 71  2  0
 71  2  1  0
 70  8  1  0
 52 14  1  0
 67 53  1  0
 50 21  1  0
 61 56  1  0
 67 62  1  0
 32 27  1  0
 48 34  1  0
 42 37  1  0
 48 43  1  0
M  END
>  <Candidate_ID>  (184) 
CAND_R2_184

>  <Candidate_Name>  (184) 
DSD-diaminotriazine

>  <Parent_Seed_ID>  (184) 
TRAIN_077

>  <Parent_Name>  (184) 
DSD

>  <Transformation_Code>  (184) 
diaminotriazine

>  <Design_Family>  (184) 
P-N-S

>  <Preparation_Type>  (184) 
Co-curing

>  <Synthesis_Level>  (184) 
B

>  <Parent_Tanimoto_r3>  (184) 
0.7291666666666666

>  <Max_Train_Tanimoto_r3>  (184) 
0.7291666666666666

>  <Risk_Flags>  (184) 
none

$$$$
CAND_R2_185 | DSD-piperazine
     RDKit          2D

 69 79  0  0  0  0  0  0  0  0999 V2000
   12.9463   -8.6926    0.0000 O   0  0  0  0  0  0  0  0  0  0  0  0
   13.6963   -9.9916    0.0000 P   0  0  0  0  0  0  0  0  0  0  0  0
   14.8454   -9.0274    0.0000 C   0  0  0  0  0  0  0  0  0  0  0  0
   14.5849   -7.5502    0.0000 N   0  0  0  0  0  0  0  0  0  0  0  0
   13.1754   -7.0372    0.0000 C   0  0  0  0  0  0  0  0  0  0  0  0
   12.9149   -5.5600    0.0000 C   0  0  0  0  0  0  0  0  0  0  0  0
   11.5054   -5.0469    0.0000 C   0  0  0  0  0  0  0  0  0  0  0  0
   10.3563   -6.0111    0.0000 C   0  0  0  0  0  0  0  0  0  0  0  0
    8.9468   -5.4981    0.0000 S   0  0  0  0  0  0  0  0  0  0  0  0
    9.4598   -4.0885    0.0000 O   0  0  0  0  0  0  0  0  0  0  0  0
    8.4337   -6.9076    0.0000 O   0  0  0  0  0  0  0  0  0  0  0  0
    7.5372   -4.9851    0.0000 C   0  0  0  0  0  0  0  0  0  0  0  0
    7.2768   -3.5078    0.0000 C   0  0  0  0  0  0  0  0  0  0  0  0
    5.8672   -2.9948    0.0000 C   0  0  0  0  0  0  0  0  0  0  0  0
    4.7181   -3.9590    0.0000 C   0  0  0  0  0  0  0  0  0  0  0  0
    3.3086   -3.4460    0.0000 N   0  0  0  0  0  0  0  0  0  0  0  0
    3.0481   -1.9688    0.0000 C   0  0  0  0  0  0  0  0  0  0  0  0
    4.1972   -1.0046    0.0000 C   0  0  0  0  0  0  0  0  0  0  0  0
    5.6067   -1.5176    0.0000 C   0  0  0  0  0  0  0  0  0  0  0  0
    6.7558   -0.5534    0.0000 C   0  0  0  0  0  0  0  0  0  0  0  0
    6.4953    0.9238    0.0000 C   0  0  0  0  0  0  0  0  0  0  0  0
    7.6444    1.8880    0.0000 N   0  0  0  0  0  0  0  0  0  0  0  0
    9.0539    1.3749    0.0000 C   0  0  0  0  0  0  0  0  0  0  0  0
   10.2030    2.3391    0.0000 C   0  0  0  0  0  0  0  0  0  0  0  0
    9.9425    3.8163    0.0000 N   0  0  0  0  0  0  0  0  0  0  0  0
    8.5330    4.3294    0.0000 C   0  0  0  0  0  0  0  0  0  0  0  0
    7.3839    3.3652    0.0000 C   0  0  0  0  0  0  0  0  0  0  0  0
    5.0858    1.4368    0.0000 C   0  0  0  0  0  0  0  0  0  0  0  0
    3.9367    0.4726    0.0000 C   0  0  0  0  0  0  0  0  0  0  0  0
    2.5272    0.9857    0.0000 O   0  0  0  0  0  0  0  0  0  0  0  0
    1.6386   -1.4557    0.0000 P   0  0  0  0  0  0  0  0  0  0  0  0
    2.3886   -0.1567    0.0000 O   0  0  0  0  0  0  0  0  0  0  0  0
    1.3781   -2.9329    0.0000 O   0  0  0  0  0  0  0  0  0  0  0  0
   -0.0314   -3.4460    0.0000 C   0  0  0  0  0  0  0  0  0  0  0  0
   -0.2919   -4.9232    0.0000 C   0  0  0  0  0  0  0  0  0  0  0  0
   -1.7014   -5.4362    0.0000 C   0  0  0  0  0  0  0  0  0  0  0  0
   -2.8505   -4.4720    0.0000 C   0  0  0  0  0  0  0  0  0  0  0  0
   -2.5900   -2.9948    0.0000 C   0  0  0  0  0  0  0  0  0  0  0  0
   -1.1805   -2.4818    0.0000 C   0  0  0  0  0  0  0  0  0  0  0  0
   -0.9200   -1.0046    0.0000 C   0  0  0  0  0  0  0  0  0  0  0  0
   -2.0691   -0.0404    0.0000 C   0  0  0  0  0  0  0  0  0  0  0  0
   -1.8086    1.4368    0.0000 C   0  0  0  0  0  0  0  0  0  0  0  0
   -0.3991    1.9499    0.0000 C   0  0  0  0  0  0  0  0  0  0  0  0
    0.7500    0.9857    0.0000 C   0  0  0  0  0  0  0  0  0  0  0  0
    0.4895   -0.4915    0.0000 C   0  0  0  0  0  0  0  0  0  0  0  0
    4.9786   -5.4362    0.0000 C   0  0  0  0  0  0  0  0  0  0  0  0
    6.3882   -5.9492    0.0000 C   0  0  0  0  0  0  0  0  0  0  0  0
   10.6168   -7.4883    0.0000 C   0  0  0  0  0  0  0  0  0  0  0  0
   12.0263   -8.0014    0.0000 C   0  0  0  0  0  0  0  0  0  0  0  0
   16.2549   -9.5404    0.0000 C   0  0  0  0  0  0  0  0  0  0  0  0
   16.5154  -11.0177    0.0000 C   0  0  0  0  0  0  0  0  0  0  0  0
   17.9249  -11.5307    0.0000 C   0  0  0  0  0  0  0  0  0  0  0  0
   19.0740  -10.5665    0.0000 C   0  0  0  0  0  0  0  0  0  0  0  0
   18.8135   -9.0893    0.0000 C   0  0  0  0  0  0  0  0  0  0  0  0
   17.4040   -8.5763    0.0000 C   0  0  0  0  0  0  0  0  0  0  0  0
   17.1435   -7.0991    0.0000 O   0  0  0  0  0  0  0  0  0  0  0  0
   14.8454  -10.9558    0.0000 O   0  0  0  0  0  0  0  0  0  0  0  0
   14.5849  -12.4330    0.0000 C   0  0  0  0  0  0  0  0  0  0  0  0
   15.7340  -13.3972    0.0000 C   0  0  0  0  0  0  0  0  0  0  0  0
   15.4735  -14.8744    0.0000 C   0  0  0  0  0  0  0  0  0  0  0  0
   14.0640  -15.3874    0.0000 C   0  0  0  0  0  0  0  0  0  0  0  0
   12.9149  -14.4232    0.0000 C   0  0  0  0  0  0  0  0  0  0  0  0
   13.1754  -12.9460    0.0000 C   0  0  0  0  0  0  0  0  0  0  0  0
   12.0263  -11.9818    0.0000 C   0  0  0  0  0  0  0  0  0  0  0  0
   10.6168  -12.4949    0.0000 C   0  0  0  0  0  0  0  0  0  0  0  0
    9.4677  -11.5307    0.0000 C   0  0  0  0  0  0  0  0  0  0  0  0
    9.7282  -10.0535    0.0000 C   0  0  0  0  0  0  0  0  0  0  0  0
   11.1377   -9.5404    0.0000 C   0  0  0  0  0  0  0  0  0  0  0  0
   12.2868  -10.5046    0.0000 C   0  0  0  0  0  0  0  0  0  0  0  0
  1  2  2  0
  2  3  1  0
  3  4  1  0
  4  5  1  0
  5  6  2  0
  6  7  1  0
  7  8  2  0
  8  9  1  0
  9 10  2  0
  9 11  2  0
  9 12  1  0
 12 13  2  0
 13 14  1  0
 14 15  2  0
 15 16  1  0
 16 17  1  0
 17 18  1  0
 18 19  2  0
 19 20  1  0
 20 21  2  0
 21 22  1  0
 22 23  1  0
 23 24  1  0
 24 25  1  0
 25 26  1  0
 26 27  1  0
 21 28  1  0
 28 29  2  0
 29 30  1  0
 17 31  1  0
 31 32  2  0
 31 33  1  0
 33 34  1  0
 34 35  2  0
 35 36  1  0
 36 37  2  0
 37 38  1  0
 38 39  2  0
 39 40  1  0
 40 41  2  0
 41 42  1  0
 42 43  2  0
 43 44  1  0
 44 45  2  0
 15 46  1  0
 46 47  2  0
  8 48  1  0
 48 49  2  0
  3 50  1  0
 50 51  2  0
 51 52  1  0
 52 53  2  0
 53 54  1  0
 54 55  2  0
 55 56  1  0
  2 57  1  0
 57 58  1  0
 58 59  2  0
 59 60  1  0
 60 61  2  0
 61 62  1  0
 62 63  2  0
 63 64  1  0
 64 65  2  0
 65 66  1  0
 66 67  2  0
 67 68  1  0
 68 69  2  0
 69  2  1  0
 49  5  1  0
 55 50  1  0
 63 58  1  0
 69 64  1  0
 47 12  1  0
 29 18  1  0
 45 31  1  0
 27 22  1  0
 39 34  1  0
 45 40  1  0
M  END
>  <Candidate_ID>  (185) 
CAND_R2_185

>  <Candidate_Name>  (185) 
DSD-piperazine

>  <Parent_Seed_ID>  (185) 
TRAIN_077

>  <Parent_Name>  (185) 
DSD

>  <Transformation_Code>  (185) 
piperazine

>  <Design_Family>  (185) 
P-N-S

>  <Preparation_Type>  (185) 
Co-curing

>  <Synthesis_Level>  (185) 
B

>  <Parent_Tanimoto_r3>  (185) 
0.7291666666666666

>  <Max_Train_Tanimoto_r3>  (185) 
0.7291666666666666

>  <Risk_Flags>  (185) 
none

$$$$
CAND_R2_186 | DSD-benzamide-linker
     RDKit          2D

 72 82  0  0  0  0  0  0  0  0999 V2000
   19.5950  -13.5209    0.0000 O   0  0  0  0  0  0  0  0  0  0  0  0
   20.7440  -12.5567    0.0000 C   0  0  0  0  0  0  0  0  0  0  0  0
   20.4835  -11.0795    0.0000 N   0  0  0  0  0  0  0  0  0  0  0  0
   19.0740  -10.5665    0.0000 C   0  0  0  0  0  0  0  0  0  0  0  0
   18.8135   -9.0893    0.0000 C   0  0  0  0  0  0  0  0  0  0  0  0
   17.4040   -8.5763    0.0000 C   0  0  0  0  0  0  0  0  0  0  0  0
   16.2549   -9.5404    0.0000 C   0  0  0  0  0  0  0  0  0  0  0  0
   14.8454   -9.0274    0.0000 C   0  0  0  0  0  0  0  0  0  0  0  0
   14.5849   -7.5502    0.0000 N   0  0  0  0  0  0  0  0  0  0  0  0
   13.1754   -7.0372    0.0000 C   0  0  0  0  0  0  0  0  0  0  0  0
   12.9149   -5.5600    0.0000 C   0  0  0  0  0  0  0  0  0  0  0  0
   11.5054   -5.0469    0.0000 C   0  0  0  0  0  0  0  0  0  0  0  0
   10.3563   -6.0111    0.0000 C   0  0  0  0  0  0  0  0  0  0  0  0
    8.9468   -5.4981    0.0000 S   0  0  0  0  0  0  0  0  0  0  0  0
    8.4337   -6.9076    0.0000 O   0  0  0  0  0  0  0  0  0  0  0  0
    9.4598   -4.0885    0.0000 O   0  0  0  0  0  0  0  0  0  0  0  0
    7.5372   -4.9851    0.0000 C   0  0  0  0  0  0  0  0  0  0  0  0
    7.2768   -3.5078    0.0000 C   0  0  0  0  0  0  0  0  0  0  0  0
    5.8672   -2.9948    0.0000 C   0  0  0  0  0  0  0  0  0  0  0  0
    4.7181   -3.9590    0.0000 C   0  0  0  0  0  0  0  0  0  0  0  0
    3.3086   -3.4460    0.0000 N   0  0  0  0  0  0  0  0  0  0  0  0
    3.0481   -1.9688    0.0000 C   0  0  0  0  0  0  0  0  0  0  0  0
    4.1972   -1.0046    0.0000 C   0  0  0  0  0  0  0  0  0  0  0  0
    5.6067   -1.5176    0.0000 C   0  0  0  0  0  0  0  0  0  0  0  0
    6.7558   -0.5534    0.0000 C   0  0  0  0  0  0  0  0  0  0  0  0
    6.4953    0.9238    0.0000 C   0  0  0  0  0  0  0  0  0  0  0  0
    5.0858    1.4368    0.0000 C   0  0  0  0  0  0  0  0  0  0  0  0
    3.9367    0.4726    0.0000 C   0  0  0  0  0  0  0  0  0  0  0  0
    2.5272    0.9857    0.0000 O   0  0  0  0  0  0  0  0  0  0  0  0
    1.6386   -1.4557    0.0000 P   0  0  0  0  0  0  0  0  0  0  0  0
    2.3886   -0.1567    0.0000 O   0  0  0  0  0  0  0  0  0  0  0  0
    1.3781   -2.9329    0.0000 O   0  0  0  0  0  0  0  0  0  0  0  0
   -0.0314   -3.4460    0.0000 C   0  0  0  0  0  0  0  0  0  0  0  0
   -0.2919   -4.9232    0.0000 C   0  0  0  0  0  0  0  0  0  0  0  0
   -1.7014   -5.4362    0.0000 C   0  0  0  0  0  0  0  0  0  0  0  0
   -2.8505   -4.4720    0.0000 C   0  0  0  0  0  0  0  0  0  0  0  0
   -2.5900   -2.9948    0.0000 C   0  0  0  0  0  0  0  0  0  0  0  0
   -1.1805   -2.4818    0.0000 C   0  0  0  0  0  0  0  0  0  0  0  0
   -0.9200   -1.0046    0.0000 C   0  0  0  0  0  0  0  0  0  0  0  0
   -2.0691   -0.0404    0.0000 C   0  0  0  0  0  0  0  0  0  0  0  0
   -1.8086    1.4368    0.0000 C   0  0  0  0  0  0  0  0  0  0  0  0
   -0.3991    1.9499    0.0000 C   0  0  0  0  0  0  0  0  0  0  0  0
    0.7500    0.9857    0.0000 C   0  0  0  0  0  0  0  0  0  0  0  0
    0.4895   -0.4915    0.0000 C   0  0  0  0  0  0  0  0  0  0  0  0
    4.9786   -5.4362    0.0000 C   0  0  0  0  0  0  0  0  0  0  0  0
    6.3882   -5.9492    0.0000 C   0  0  0  0  0  0  0  0  0  0  0  0
   10.6168   -7.4883    0.0000 C   0  0  0  0  0  0  0  0  0  0  0  0
   12.0263   -8.0014    0.0000 C   0  0  0  0  0  0  0  0  0  0  0  0
   13.6963   -9.9916    0.0000 P   0  0  0  0  0  0  0  0  0  0  0  0
   12.9463   -8.6926    0.0000 O   0  0  0  0  0  0  0  0  0  0  0  0
   14.8454  -10.9558    0.0000 O   0  0  0  0  0  0  0  0  0  0  0  0
   14.5849  -12.4330    0.0000 C   0  0  0  0  0  0  0  0  0  0  0  0
   15.7340  -13.3972    0.0000 C   0  0  0  0  0  0  0  0  0  0  0  0
   15.4735  -14.8744    0.0000 C   0  0  0  0  0  0  0  0  0  0  0  0
   14.0640  -15.3874    0.0000 C   0  0  0  0  0  0  0  0  0  0  0  0
   12.9149  -14.4232    0.0000 C   0  0  0  0  0  0  0  0  0  0  0  0
   13.1754  -12.9460    0.0000 C   0  0  0  0  0  0  0  0  0  0  0  0
   12.0263  -11.9818    0.0000 C   0  0  0  0  0  0  0  0  0  0  0  0
   10.6168  -12.4949    0.0000 C   0  0  0  0  0  0  0  0  0  0  0  0
    9.4677  -11.5307    0.0000 C   0  0  0  0  0  0  0  0  0  0  0  0
    9.7282  -10.0535    0.0000 C   0  0  0  0  0  0  0  0  0  0  0  0
   11.1377   -9.5404    0.0000 C   0  0  0  0  0  0  0  0  0  0  0  0
   12.2868  -10.5046    0.0000 C   0  0  0  0  0  0  0  0  0  0  0  0
   16.5154  -11.0177    0.0000 C   0  0  0  0  0  0  0  0  0  0  0  0
   15.3663  -11.9818    0.0000 O   0  0  0  0  0  0  0  0  0  0  0  0
   17.9249  -11.5307    0.0000 C   0  0  0  0  0  0  0  0  0  0  0  0
   22.1536  -13.0698    0.0000 C   0  0  0  0  0  0  0  0  0  0  0  0
   22.4140  -14.5470    0.0000 C   0  0  0  0  0  0  0  0  0  0  0  0
   23.8236  -15.0600    0.0000 C   0  0  0  0  0  0  0  0  0  0  0  0
   24.9726  -14.0958    0.0000 C   0  0  0  0  0  0  0  0  0  0  0  0
   24.7122  -12.6186    0.0000 C   0  0  0  0  0  0  0  0  0  0  0  0
   23.3026  -12.1056    0.0000 C   0  0  0  0  0  0  0  0  0  0  0  0
  1  2  2  0
  2  3  1  0
  3  4  1  0
  4  5  2  0
  5  6  1  0
  6  7  2  0
  7  8  1  0
  8  9  1  0
  9 10  1  0
 10 11  2  0
 11 12  1  0
 12 13  2  0
 13 14  1  0
 14 15  2  0
 14 16  2  0
 14 17  1  0
 17 18  2  0
 18 19  1  0
 19 20  2  0
 20 21  1  0
 21 22  1  0
 22 23  1  0
 23 24  2  0
 24 25  1  0
 25 26  2  0
 26 27  1  0
 27 28  2  0
 28 29  1  0
 22 30  1  0
 30 31  2  0
 30 32  1  0
 32 33  1  0
 33 34  2  0
 34 35  1  0
 35 36  2  0
 36 37  1  0
 37 38  2  0
 38 39  1  0
 39 40  2  0
 40 41  1  0
 41 42  2  0
 42 43  1  0
 43 44  2  0
 20 45  1  0
 45 46  2  0
 13 47  1  0
 47 48  2  0
  8 49  1  0
 49 50  2  0
 49 51  1  0
 51 52  1  0
 52 53  2  0
 53 54  1  0
 54 55  2  0
 55 56  1  0
 56 57  2  0
 57 58  1  0
 58 59  2  0
 59 60  1  0
 60 61  2  0
 61 62  1  0
 62 63  2  0
  7 64  1  0
 64 65  1  0
 64 66  2  0
  2 67  1  0
 67 68  2  0
 68 69  1  0
 69 70  2  0
 70 71  1  0
 71 72  2  0
 66  4  1  0
 72 67  1  0
 48 10  1  0
 63 49  1  0
 46 17  1  0
 57 52  1  0
 63 58  1  0
 28 23  1  0
 44 30  1  0
 38 33  1  0
 44 39  1  0
M  END
>  <Candidate_ID>  (186) 
CAND_R2_186

>  <Candidate_Name>  (186) 
DSD-benzamide-linker

>  <Parent_Seed_ID>  (186) 
TRAIN_077

>  <Parent_Name>  (186) 
DSD

>  <Transformation_Code>  (186) 
benzamide_linker

>  <Design_Family>  (186) 
P-N-S

>  <Preparation_Type>  (186) 
Additive

>  <Synthesis_Level>  (186) 
B

>  <Parent_Tanimoto_r3>  (186) 
0.7368421052631579

>  <Max_Train_Tanimoto_r3>  (186) 
0.7368421052631579

>  <Risk_Flags>  (186) 
none

$$$$
CAND_R2_187 | DSD-phenyl
     RDKit          2D

 69 79  0  0  0  0  0  0  0  0999 V2000
   12.9463   -8.6926    0.0000 O   0  0  0  0  0  0  0  0  0  0  0  0
   13.6963   -9.9916    0.0000 P   0  0  0  0  0  0  0  0  0  0  0  0
   14.8454   -9.0274    0.0000 C   0  0  0  0  0  0  0  0  0  0  0  0
   14.5849   -7.5502    0.0000 N   0  0  0  0  0  0  0  0  0  0  0  0
   13.1754   -7.0372    0.0000 C   0  0  0  0  0  0  0  0  0  0  0  0
   12.9149   -5.5600    0.0000 C   0  0  0  0  0  0  0  0  0  0  0  0
   11.5054   -5.0469    0.0000 C   0  0  0  0  0  0  0  0  0  0  0  0
   10.3563   -6.0111    0.0000 C   0  0  0  0  0  0  0  0  0  0  0  0
    8.9468   -5.4981    0.0000 S   0  0  0  0  0  0  0  0  0  0  0  0
    9.4598   -4.0885    0.0000 O   0  0  0  0  0  0  0  0  0  0  0  0
    8.4337   -6.9076    0.0000 O   0  0  0  0  0  0  0  0  0  0  0  0
    7.5372   -4.9851    0.0000 C   0  0  0  0  0  0  0  0  0  0  0  0
    7.2768   -3.5078    0.0000 C   0  0  0  0  0  0  0  0  0  0  0  0
    5.8672   -2.9948    0.0000 C   0  0  0  0  0  0  0  0  0  0  0  0
    4.7181   -3.9590    0.0000 C   0  0  0  0  0  0  0  0  0  0  0  0
    3.3086   -3.4460    0.0000 N   0  0  0  0  0  0  0  0  0  0  0  0
    3.0481   -1.9688    0.0000 C   0  0  0  0  0  0  0  0  0  0  0  0
    4.1972   -1.0046    0.0000 C   0  0  0  0  0  0  0  0  0  0  0  0
    5.6067   -1.5176    0.0000 C   0  0  0  0  0  0  0  0  0  0  0  0
    6.7558   -0.5534    0.0000 C   0  0  0  0  0  0  0  0  0  0  0  0
    6.4953    0.9238    0.0000 C   0  0  0  0  0  0  0  0  0  0  0  0
    7.6444    1.8880    0.0000 C   0  0  0  0  0  0  0  0  0  0  0  0
    9.0539    1.3749    0.0000 C   0  0  0  0  0  0  0  0  0  0  0  0
   10.2030    2.3391    0.0000 C   0  0  0  0  0  0  0  0  0  0  0  0
    9.9425    3.8163    0.0000 C   0  0  0  0  0  0  0  0  0  0  0  0
    8.5330    4.3294    0.0000 C   0  0  0  0  0  0  0  0  0  0  0  0
    7.3839    3.3652    0.0000 C   0  0  0  0  0  0  0  0  0  0  0  0
    5.0858    1.4368    0.0000 C   0  0  0  0  0  0  0  0  0  0  0  0
    3.9367    0.4726    0.0000 C   0  0  0  0  0  0  0  0  0  0  0  0
    2.5272    0.9857    0.0000 O   0  0  0  0  0  0  0  0  0  0  0  0
    1.6386   -1.4557    0.0000 P   0  0  0  0  0  0  0  0  0  0  0  0
    2.3886   -0.1567    0.0000 O   0  0  0  0  0  0  0  0  0  0  0  0
    1.3781   -2.9329    0.0000 O   0  0  0  0  0  0  0  0  0  0  0  0
   -0.0314   -3.4460    0.0000 C   0  0  0  0  0  0  0  0  0  0  0  0
   -0.2919   -4.9232    0.0000 C   0  0  0  0  0  0  0  0  0  0  0  0
   -1.7014   -5.4362    0.0000 C   0  0  0  0  0  0  0  0  0  0  0  0
   -2.8505   -4.4720    0.0000 C   0  0  0  0  0  0  0  0  0  0  0  0
   -2.5900   -2.9948    0.0000 C   0  0  0  0  0  0  0  0  0  0  0  0
   -1.1805   -2.4818    0.0000 C   0  0  0  0  0  0  0  0  0  0  0  0
   -0.9200   -1.0046    0.0000 C   0  0  0  0  0  0  0  0  0  0  0  0
   -2.0691   -0.0404    0.0000 C   0  0  0  0  0  0  0  0  0  0  0  0
   -1.8086    1.4368    0.0000 C   0  0  0  0  0  0  0  0  0  0  0  0
   -0.3991    1.9499    0.0000 C   0  0  0  0  0  0  0  0  0  0  0  0
    0.7500    0.9857    0.0000 C   0  0  0  0  0  0  0  0  0  0  0  0
    0.4895   -0.4915    0.0000 C   0  0  0  0  0  0  0  0  0  0  0  0
    4.9786   -5.4362    0.0000 C   0  0  0  0  0  0  0  0  0  0  0  0
    6.3882   -5.9492    0.0000 C   0  0  0  0  0  0  0  0  0  0  0  0
   10.6168   -7.4883    0.0000 C   0  0  0  0  0  0  0  0  0  0  0  0
   12.0263   -8.0014    0.0000 C   0  0  0  0  0  0  0  0  0  0  0  0
   16.2549   -9.5404    0.0000 C   0  0  0  0  0  0  0  0  0  0  0  0
   16.5154  -11.0177    0.0000 C   0  0  0  0  0  0  0  0  0  0  0  0
   17.9249  -11.5307    0.0000 C   0  0  0  0  0  0  0  0  0  0  0  0
   19.0740  -10.5665    0.0000 C   0  0  0  0  0  0  0  0  0  0  0  0
   18.8135   -9.0893    0.0000 C   0  0  0  0  0  0  0  0  0  0  0  0
   17.4040   -8.5763    0.0000 C   0  0  0  0  0  0  0  0  0  0  0  0
   17.1435   -7.0991    0.0000 O   0  0  0  0  0  0  0  0  0  0  0  0
   14.8454  -10.9558    0.0000 O   0  0  0  0  0  0  0  0  0  0  0  0
   14.5849  -12.4330    0.0000 C   0  0  0  0  0  0  0  0  0  0  0  0
   15.7340  -13.3972    0.0000 C   0  0  0  0  0  0  0  0  0  0  0  0
   15.4735  -14.8744    0.0000 C   0  0  0  0  0  0  0  0  0  0  0  0
   14.0640  -15.3874    0.0000 C   0  0  0  0  0  0  0  0  0  0  0  0
   12.9149  -14.4232    0.0000 C   0  0  0  0  0  0  0  0  0  0  0  0
   13.1754  -12.9460    0.0000 C   0  0  0  0  0  0  0  0  0  0  0  0
   12.0263  -11.9818    0.0000 C   0  0  0  0  0  0  0  0  0  0  0  0
   10.6168  -12.4949    0.0000 C   0  0  0  0  0  0  0  0  0  0  0  0
    9.4677  -11.5307    0.0000 C   0  0  0  0  0  0  0  0  0  0  0  0
    9.7282  -10.0535    0.0000 C   0  0  0  0  0  0  0  0  0  0  0  0
   11.1377   -9.5404    0.0000 C   0  0  0  0  0  0  0  0  0  0  0  0
   12.2868  -10.5046    0.0000 C   0  0  0  0  0  0  0  0  0  0  0  0
  1  2  2  0
  2  3  1  0
  3  4  1  0
  4  5  1  0
  5  6  2  0
  6  7  1  0
  7  8  2  0
  8  9  1  0
  9 10  2  0
  9 11  2  0
  9 12  1  0
 12 13  2  0
 13 14  1  0
 14 15  2  0
 15 16  1  0
 16 17  1  0
 17 18  1  0
 18 19  2  0
 19 20  1  0
 20 21  2  0
 21 22  1  0
 22 23  2  0
 23 24  1  0
 24 25  2  0
 25 26  1  0
 26 27  2  0
 21 28  1  0
 28 29  2  0
 29 30  1  0
 17 31  1  0
 31 32  2  0
 31 33  1  0
 33 34  1  0
 34 35  2  0
 35 36  1  0
 36 37  2  0
 37 38  1  0
 38 39  2  0
 39 40  1  0
 40 41  2  0
 41 42  1  0
 42 43  2  0
 43 44  1  0
 44 45  2  0
 15 46  1  0
 46 47  2  0
  8 48  1  0
 48 49  2  0
  3 50  1  0
 50 51  2  0
 51 52  1  0
 52 53  2  0
 53 54  1  0
 54 55  2  0
 55 56  1  0
  2 57  1  0
 57 58  1  0
 58 59  2  0
 59 60  1  0
 60 61  2  0
 61 62  1  0
 62 63  2  0
 63 64  1  0
 64 65  2  0
 65 66  1  0
 66 67  2  0
 67 68  1  0
 68 69  2  0
 69  2  1  0
 49  5  1  0
 55 50  1  0
 63 58  1  0
 69 64  1  0
 47 12  1  0
 29 18  1  0
 45 31  1  0
 27 22  1  0
 39 34  1  0
 45 40  1  0
M  END
>  <Candidate_ID>  (187) 
CAND_R2_187

>  <Candidate_Name>  (187) 
DSD-phenyl

>  <Parent_Seed_ID>  (187) 
TRAIN_077

>  <Parent_Name>  (187) 
DSD

>  <Transformation_Code>  (187) 
phenyl

>  <Design_Family>  (187) 
P-N-S

>  <Preparation_Type>  (187) 
Additive

>  <Synthesis_Level>  (187) 
B

>  <Parent_Tanimoto_r3>  (187) 
0.7865168539325843

>  <Max_Train_Tanimoto_r3>  (187) 
0.7865168539325843

>  <Risk_Flags>  (187) 
none

$$$$
CAND_R2_188 | DSD-biphenyl
     RDKit          2D

 75 86  0  0  0  0  0  0  0  0999 V2000
   12.9463   -8.6926    0.0000 O   0  0  0  0  0  0  0  0  0  0  0  0
   13.6963   -9.9916    0.0000 P   0  0  0  0  0  0  0  0  0  0  0  0
   14.8454   -9.0274    0.0000 C   0  0  0  0  0  0  0  0  0  0  0  0
   14.5849   -7.5502    0.0000 N   0  0  0  0  0  0  0  0  0  0  0  0
   13.1754   -7.0372    0.0000 C   0  0  0  0  0  0  0  0  0  0  0  0
   12.9149   -5.5600    0.0000 C   0  0  0  0  0  0  0  0  0  0  0  0
   11.5054   -5.0469    0.0000 C   0  0  0  0  0  0  0  0  0  0  0  0
   10.3563   -6.0111    0.0000 C   0  0  0  0  0  0  0  0  0  0  0  0
    8.9468   -5.4981    0.0000 S   0  0  0  0  0  0  0  0  0  0  0  0
    9.4598   -4.0885    0.0000 O   0  0  0  0  0  0  0  0  0  0  0  0
    8.4337   -6.9076    0.0000 O   0  0  0  0  0  0  0  0  0  0  0  0
    7.5372   -4.9851    0.0000 C   0  0  0  0  0  0  0  0  0  0  0  0
    7.2768   -3.5078    0.0000 C   0  0  0  0  0  0  0  0  0  0  0  0
    5.8672   -2.9948    0.0000 C   0  0  0  0  0  0  0  0  0  0  0  0
    4.7181   -3.9590    0.0000 C   0  0  0  0  0  0  0  0  0  0  0  0
    3.3086   -3.4460    0.0000 N   0  0  0  0  0  0  0  0  0  0  0  0
    3.0481   -1.9688    0.0000 C   0  0  0  0  0  0  0  0  0  0  0  0
    4.1972   -1.0046    0.0000 C   0  0  0  0  0  0  0  0  0  0  0  0
    5.6067   -1.5176    0.0000 C   0  0  0  0  0  0  0  0  0  0  0  0
    6.7558   -0.5534    0.0000 C   0  0  0  0  0  0  0  0  0  0  0  0
    6.4953    0.9238    0.0000 C   0  0  0  0  0  0  0  0  0  0  0  0
    7.6444    1.8880    0.0000 C   0  0  0  0  0  0  0  0  0  0  0  0
    9.0539    1.3749    0.0000 C   0  0  0  0  0  0  0  0  0  0  0  0
   10.2030    2.3391    0.0000 C   0  0  0  0  0  0  0  0  0  0  0  0
    9.9425    3.8163    0.0000 C   0  0  0  0  0  0  0  0  0  0  0  0
   11.0916    4.7805    0.0000 C   0  0  0  0  0  0  0  0  0  0  0  0
   12.5011    4.2675    0.0000 C   0  0  0  0  0  0  0  0  0  0  0  0
   13.6502    5.2317    0.0000 C   0  0  0  0  0  0  0  0  0  0  0  0
   13.3897    6.7089    0.0000 C   0  0  0  0  0  0  0  0  0  0  0  0
   11.9802    7.2219    0.0000 C   0  0  0  0  0  0  0  0  0  0  0  0
   10.8311    6.2577    0.0000 C   0  0  0  0  0  0  0  0  0  0  0  0
    8.5330    4.3294    0.0000 C   0  0  0  0  0  0  0  0  0  0  0  0
    7.3839    3.3652    0.0000 C   0  0  0  0  0  0  0  0  0  0  0  0
    5.0858    1.4368    0.0000 C   0  0  0  0  0  0  0  0  0  0  0  0
    3.9367    0.4726    0.0000 C   0  0  0  0  0  0  0  0  0  0  0  0
    2.5272    0.9857    0.0000 O   0  0  0  0  0  0  0  0  0  0  0  0
    1.6386   -1.4557    0.0000 P   0  0  0  0  0  0  0  0  0  0  0  0
    2.3886   -0.1567    0.0000 O   0  0  0  0  0  0  0  0  0  0  0  0
    1.3781   -2.9329    0.0000 O   0  0  0  0  0  0  0  0  0  0  0  0
   -0.0314   -3.4460    0.0000 C   0  0  0  0  0  0  0  0  0  0  0  0
   -0.2919   -4.9232    0.0000 C   0  0  0  0  0  0  0  0  0  0  0  0
   -1.7014   -5.4362    0.0000 C   0  0  0  0  0  0  0  0  0  0  0  0
   -2.8505   -4.4720    0.0000 C   0  0  0  0  0  0  0  0  0  0  0  0
   -2.5900   -2.9948    0.0000 C   0  0  0  0  0  0  0  0  0  0  0  0
   -1.1805   -2.4818    0.0000 C   0  0  0  0  0  0  0  0  0  0  0  0
   -0.9200   -1.0046    0.0000 C   0  0  0  0  0  0  0  0  0  0  0  0
   -2.0691   -0.0404    0.0000 C   0  0  0  0  0  0  0  0  0  0  0  0
   -1.8086    1.4368    0.0000 C   0  0  0  0  0  0  0  0  0  0  0  0
   -0.3991    1.9499    0.0000 C   0  0  0  0  0  0  0  0  0  0  0  0
    0.7500    0.9857    0.0000 C   0  0  0  0  0  0  0  0  0  0  0  0
    0.4895   -0.4915    0.0000 C   0  0  0  0  0  0  0  0  0  0  0  0
    4.9786   -5.4362    0.0000 C   0  0  0  0  0  0  0  0  0  0  0  0
    6.3882   -5.9492    0.0000 C   0  0  0  0  0  0  0  0  0  0  0  0
   10.6168   -7.4883    0.0000 C   0  0  0  0  0  0  0  0  0  0  0  0
   12.0263   -8.0014    0.0000 C   0  0  0  0  0  0  0  0  0  0  0  0
   16.2549   -9.5404    0.0000 C   0  0  0  0  0  0  0  0  0  0  0  0
   16.5154  -11.0177    0.0000 C   0  0  0  0  0  0  0  0  0  0  0  0
   17.9249  -11.5307    0.0000 C   0  0  0  0  0  0  0  0  0  0  0  0
   19.0740  -10.5665    0.0000 C   0  0  0  0  0  0  0  0  0  0  0  0
   18.8135   -9.0893    0.0000 C   0  0  0  0  0  0  0  0  0  0  0  0
   17.4040   -8.5763    0.0000 C   0  0  0  0  0  0  0  0  0  0  0  0
   17.1435   -7.0991    0.0000 O   0  0  0  0  0  0  0  0  0  0  0  0
   14.8454  -10.9558    0.0000 O   0  0  0  0  0  0  0  0  0  0  0  0
   14.5849  -12.4330    0.0000 C   0  0  0  0  0  0  0  0  0  0  0  0
   15.7340  -13.3972    0.0000 C   0  0  0  0  0  0  0  0  0  0  0  0
   15.4735  -14.8744    0.0000 C   0  0  0  0  0  0  0  0  0  0  0  0
   14.0640  -15.3874    0.0000 C   0  0  0  0  0  0  0  0  0  0  0  0
   12.9149  -14.4232    0.0000 C   0  0  0  0  0  0  0  0  0  0  0  0
   13.1754  -12.9460    0.0000 C   0  0  0  0  0  0  0  0  0  0  0  0
   12.0263  -11.9818    0.0000 C   0  0  0  0  0  0  0  0  0  0  0  0
   10.6168  -12.4949    0.0000 C   0  0  0  0  0  0  0  0  0  0  0  0
    9.4677  -11.5307    0.0000 C   0  0  0  0  0  0  0  0  0  0  0  0
    9.7282  -10.0535    0.0000 C   0  0  0  0  0  0  0  0  0  0  0  0
   11.1377   -9.5404    0.0000 C   0  0  0  0  0  0  0  0  0  0  0  0
   12.2868  -10.5046    0.0000 C   0  0  0  0  0  0  0  0  0  0  0  0
  1  2  2  0
  2  3  1  0
  3  4  1  0
  4  5  1  0
  5  6  2  0
  6  7  1  0
  7  8  2  0
  8  9  1  0
  9 10  2  0
  9 11  2  0
  9 12  1  0
 12 13  2  0
 13 14  1  0
 14 15  2  0
 15 16  1  0
 16 17  1  0
 17 18  1  0
 18 19  2  0
 19 20  1  0
 20 21  2  0
 21 22  1  0
 22 23  2  0
 23 24  1  0
 24 25  2  0
 25 26  1  0
 26 27  2  0
 27 28  1  0
 28 29  2  0
 29 30  1  0
 30 31  2  0
 25 32  1  0
 32 33  2  0
 21 34  1  0
 34 35  2  0
 35 36  1  0
 17 37  1  0
 37 38  2  0
 37 39  1  0
 39 40  1  0
 40 41  2  0
 41 42  1  0
 42 43  2  0
 43 44  1  0
 44 45  2  0
 45 46  1  0
 46 47  2  0
 47 48  1  0
 48 49  2  0
 49 50  1  0
 50 51  2  0
 15 52  1  0
 52 53  2  0
  8 54  1  0
 54 55  2  0
  3 56  1  0
 56 57  2  0
 57 58  1  0
 58 59  2  0
 59 60  1  0
 60 61  2  0
 61 62  1  0
  2 63  1  0
 63 64  1  0
 64 65  2  0
 65 66  1  0
 66 67  2  0
 67 68  1  0
 68 69  2  0
 69 70  1  0
 70 71  2  0
 71 72  1  0
 72 73  2  0
 73 74  1  0
 74 75  2  0
 75  2  1  0
 55  5  1  0
 61 56  1  0
 69 64  1  0
 75 70  1  0
 53 12  1  0
 35 18  1  0
 51 37  1  0
 33 22  1  0
 45 40  1  0
 51 46  1  0
 31 26  1  0
M  END
>  <Candidate_ID>  (188) 
CAND_R2_188

>  <Candidate_Name>  (188) 
DSD-biphenyl

>  <Parent_Seed_ID>  (188) 
TRAIN_077

>  <Parent_Name>  (188) 
DSD

>  <Transformation_Code>  (188) 
biphenyl

>  <Design_Family>  (188) 
P-N-S

>  <Preparation_Type>  (188) 
Additive

>  <Synthesis_Level>  (188) 
B

>  <Parent_Tanimoto_r3>  (188) 
0.7608695652173914

>  <Max_Train_Tanimoto_r3>  (188) 
0.7608695652173914

>  <Risk_Flags>  (188) 
none

$$$$
CAND_R2_189 | DSD-OH-glycidyl-all
     RDKit          2D

 71 82  0  0  0  0  0  0  0  0999 V2000
   12.9463   -8.6926    0.0000 O   0  0  0  0  0  0  0  0  0  0  0  0
   13.6963   -9.9916    0.0000 P   0  0  0  0  0  0  0  0  0  0  0  0
   14.8454   -9.0274    0.0000 C   0  0  0  0  0  0  0  0  0  0  0  0
   14.5849   -7.5502    0.0000 N   0  0  0  0  0  0  0  0  0  0  0  0
   13.1754   -7.0372    0.0000 C   0  0  0  0  0  0  0  0  0  0  0  0
   12.9149   -5.5600    0.0000 C   0  0  0  0  0  0  0  0  0  0  0  0
   11.5054   -5.0469    0.0000 C   0  0  0  0  0  0  0  0  0  0  0  0
   10.3563   -6.0111    0.0000 C   0  0  0  0  0  0  0  0  0  0  0  0
    8.9468   -5.4981    0.0000 S   0  0  0  0  0  0  0  0  0  0  0  0
    8.4337   -6.9076    0.0000 O   0  0  0  0  0  0  0  0  0  0  0  0
    9.4598   -4.0885    0.0000 O   0  0  0  0  0  0  0  0  0  0  0  0
    7.5372   -4.9851    0.0000 C   0  0  0  0  0  0  0  0  0  0  0  0
    7.2768   -3.5078    0.0000 C   0  0  0  0  0  0  0  0  0  0  0  0
    5.8672   -2.9948    0.0000 C   0  0  0  0  0  0  0  0  0  0  0  0
    4.7181   -3.9590    0.0000 C   0  0  0  0  0  0  0  0  0  0  0  0
    3.3086   -3.4460    0.0000 N   0  0  0  0  0  0  0  0  0  0  0  0
    3.0481   -1.9688    0.0000 C   0  0  0  0  0  0  0  0  0  0  0  0
    4.1972   -1.0046    0.0000 C   0  0  0  0  0  0  0  0  0  0  0  0
    5.6067   -1.5176    0.0000 C   0  0  0  0  0  0  0  0  0  0  0  0
    6.7558   -0.5534    0.0000 C   0  0  0  0  0  0  0  0  0  0  0  0
    6.4953    0.9238    0.0000 C   0  0  0  0  0  0  0  0  0  0  0  0
    5.0858    1.4368    0.0000 C   0  0  0  0  0  0  0  0  0  0  0  0
    3.9367    0.4726    0.0000 C   0  0  0  0  0  0  0  0  0  0  0  0
    2.5272    0.9857    0.0000 O   0  0  0  0  0  0  0  0  0  0  0  0
    2.2667    2.4629    0.0000 C   0  0  0  0  0  0  0  0  0  0  0  0
    3.4158    3.4271    0.0000 C   0  0  0  0  0  0  0  0  0  0  0  0
    4.8930    3.6875    0.0000 C   0  0  0  0  0  0  0  0  0  0  0  0
    3.9288    4.8366    0.0000 O   0  0  0  0  0  0  0  0  0  0  0  0
    1.6386   -1.4557    0.0000 P   0  0  0  0  0  0  0  0  0  0  0  0
    2.3886   -0.1567    0.0000 O   0  0  0  0  0  0  0  0  0  0  0  0
    1.3781   -2.9329    0.0000 O   0  0  0  0  0  0  0  0  0  0  0  0
   -0.0314   -3.4460    0.0000 C   0  0  0  0  0  0  0  0  0  0  0  0
   -0.2919   -4.9232    0.0000 C   0  0  0  0  0  0  0  0  0  0  0  0
   -1.7014   -5.4362    0.0000 C   0  0  0  0  0  0  0  0  0  0  0  0
   -2.8505   -4.4720    0.0000 C   0  0  0  0  0  0  0  0  0  0  0  0
   -2.5900   -2.9948    0.0000 C   0  0  0  0  0  0  0  0  0  0  0  0
   -1.1805   -2.4818    0.0000 C   0  0  0  0  0  0  0  0  0  0  0  0
   -0.9200   -1.0046    0.0000 C   0  0  0  0  0  0  0  0  0  0  0  0
   -2.0691   -0.0404    0.0000 C   0  0  0  0  0  0  0  0  0  0  0  0
   -1.8086    1.4368    0.0000 C   0  0  0  0  0  0  0  0  0  0  0  0
   -0.3991    1.9499    0.0000 C   0  0  0  0  0  0  0  0  0  0  0  0
    0.7500    0.9857    0.0000 C   0  0  0  0  0  0  0  0  0  0  0  0
    0.4895   -0.4915    0.0000 C   0  0  0  0  0  0  0  0  0  0  0  0
    4.9786   -5.4362    0.0000 C   0  0  0  0  0  0  0  0  0  0  0  0
    6.3882   -5.9492    0.0000 C   0  0  0  0  0  0  0  0  0  0  0  0
   10.6168   -7.4883    0.0000 C   0  0  0  0  0  0  0  0  0  0  0  0
   12.0263   -8.0014    0.0000 C   0  0  0  0  0  0  0  0  0  0  0  0
   16.2549   -9.5404    0.0000 C   0  0  0  0  0  0  0  0  0  0  0  0
   16.5154  -11.0177    0.0000 C   0  0  0  0  0  0  0  0  0  0  0  0
   17.9249  -11.5307    0.0000 C   0  0  0  0  0  0  0  0  0  0  0  0
   19.0740  -10.5665    0.0000 C   0  0  0  0  0  0  0  0  0  0  0  0
   18.8135   -9.0893    0.0000 C   0  0  0  0  0  0  0  0  0  0  0  0
   17.4040   -8.5763    0.0000 C   0  0  0  0  0  0  0  0  0  0  0  0
   17.1435   -7.0991    0.0000 O   0  0  0  0  0  0  0  0  0  0  0  0
   18.2926   -6.1349    0.0000 C   0  0  0  0  0  0  0  0  0  0  0  0
   18.0321   -4.6577    0.0000 C   0  0  0  0  0  0  0  0  0  0  0  0
   17.0679   -3.5086    0.0000 C   0  0  0  0  0  0  0  0  0  0  0  0
   18.5451   -3.2481    0.0000 O   0  0  0  0  0  0  0  0  0  0  0  0
   14.8454  -10.9558    0.0000 O   0  0  0  0  0  0  0  0  0  0  0  0
   14.5849  -12.4330    0.0000 C   0  0  0  0  0  0  0  0  0  0  0  0
   15.7340  -13.3972    0.0000 C   0  0  0  0  0  0  0  0  0  0  0  0
   15.4735  -14.8744    0.0000 C   0  0  0  0  0  0  0  0  0  0  0  0
   14.0640  -15.3874    0.0000 C   0  0  0  0  0  0  0  0  0  0  0  0
   12.9149  -14.4232    0.0000 C   0  0  0  0  0  0  0  0  0  0  0  0
   13.1754  -12.9460    0.0000 C   0  0  0  0  0  0  0  0  0  0  0  0
   12.0263  -11.9818    0.0000 C   0  0  0  0  0  0  0  0  0  0  0  0
   10.6168  -12.4949    0.0000 C   0  0  0  0  0  0  0  0  0  0  0  0
    9.4677  -11.5307    0.0000 C   0  0  0  0  0  0  0  0  0  0  0  0
    9.7282  -10.0535    0.0000 C   0  0  0  0  0  0  0  0  0  0  0  0
   11.1377   -9.5404    0.0000 C   0  0  0  0  0  0  0  0  0  0  0  0
   12.2868  -10.5046    0.0000 C   0  0  0  0  0  0  0  0  0  0  0  0
  1  2  2  0
  2  3  1  0
  3  4  1  0
  4  5  1  0
  5  6  2  0
  6  7  1  0
  7  8  2  0
  8  9  1  0
  9 10  2  0
  9 11  2  0
  9 12  1  0
 12 13  2  0
 13 14  1  0
 14 15  2  0
 15 16  1  0
 16 17  1  0
 17 18  1  0
 18 19  2  0
 19 20  1  0
 20 21  2  0
 21 22  1  0
 22 23  2  0
 23 24  1  0
 24 25  1  0
 25 26  1  0
 26 27  1  0
 27 28  1  0
 17 29  1  0
 29 30  2  0
 29 31  1  0
 31 32  1  0
 32 33  2  0
 33 34  1  0
 34 35  2  0
 35 36  1  0
 36 37  2  0
 37 38  1  0
 38 39  2  0
 39 40  1  0
 40 41  2  0
 41 42  1  0
 42 43  2  0
 15 44  1  0
 44 45  2  0
  8 46  1  0
 46 47  2  0
  3 48  1  0
 48 49  2  0
 49 50  1  0
 50 51  2  0
 51 52  1  0
 52 53  2  0
 53 54  1  0
 54 55  1  0
 55 56  1  0
 56 57  1  0
 57 58  1  0
  2 59  1  0
 59 60  1  0
 60 61  2  0
 61 62  1  0
 62 63  2  0
 63 64  1  0
 64 65  2  0
 65 66  1  0
 66 67  2  0
 67 68  1  0
 68 69  2  0
 69 70  1  0
 70 71  2  0
 71  2  1  0
 47  5  1  0
 53 48  1  0
 58 56  1  0
 65 60  1  0
 71 66  1  0
 45 12  1  0
 23 18  1  0
 28 26  1  0
 43 29  1  0
 37 32  1  0
 43 38  1  0
M  END
>  <Candidate_ID>  (189) 
CAND_R2_189

>  <Candidate_Name>  (189) 
DSD-OH-glycidyl-all

>  <Parent_Seed_ID>  (189) 
TRAIN_077

>  <Parent_Name>  (189) 
DSD

>  <Transformation_Code>  (189) 
OH_glycidyl_all

>  <Design_Family>  (189) 
P-N-S

>  <Preparation_Type>  (189) 
Co-curing

>  <Synthesis_Level>  (189) 
B

>  <Parent_Tanimoto_r3>  (189) 
0.6421052631578947

>  <Max_Train_Tanimoto_r3>  (189) 
0.6421052631578947

>  <Risk_Flags>  (189) 
large structural change from parent; candidate may be outside strict in-domain threshold

$$$$
CAND_R2_190 | DSD-OH-methyl
     RDKit          2D

 64 73  0  0  0  0  0  0  0  0999 V2000
   18.2926   -6.1349    0.0000 C   0  0  0  0  0  0  0  0  0  0  0  0
   17.1435   -7.0991    0.0000 O   0  0  0  0  0  0  0  0  0  0  0  0
   17.4040   -8.5763    0.0000 C   0  0  0  0  0  0  0  0  0  0  0  0
   18.8135   -9.0893    0.0000 C   0  0  0  0  0  0  0  0  0  0  0  0
   19.0740  -10.5665    0.0000 C   0  0  0  0  0  0  0  0  0  0  0  0
   17.9249  -11.5307    0.0000 C   0  0  0  0  0  0  0  0  0  0  0  0
   16.5154  -11.0177    0.0000 C   0  0  0  0  0  0  0  0  0  0  0  0
   16.2549   -9.5404    0.0000 C   0  0  0  0  0  0  0  0  0  0  0  0
   14.8454   -9.0274    0.0000 C   0  0  0  0  0  0  0  0  0  0  0  0
   14.5849   -7.5502    0.0000 N   0  0  0  0  0  0  0  0  0  0  0  0
   13.1754   -7.0372    0.0000 C   0  0  0  0  0  0  0  0  0  0  0  0
   12.9149   -5.5600    0.0000 C   0  0  0  0  0  0  0  0  0  0  0  0
   11.5054   -5.0469    0.0000 C   0  0  0  0  0  0  0  0  0  0  0  0
   10.3563   -6.0111    0.0000 C   0  0  0  0  0  0  0  0  0  0  0  0
    8.9468   -5.4981    0.0000 S   0  0  0  0  0  0  0  0  0  0  0  0
    8.4337   -6.9076    0.0000 O   0  0  0  0  0  0  0  0  0  0  0  0
    9.4598   -4.0885    0.0000 O   0  0  0  0  0  0  0  0  0  0  0  0
    7.5372   -4.9851    0.0000 C   0  0  0  0  0  0  0  0  0  0  0  0
    7.2768   -3.5078    0.0000 C   0  0  0  0  0  0  0  0  0  0  0  0
    5.8672   -2.9948    0.0000 C   0  0  0  0  0  0  0  0  0  0  0  0
    4.7181   -3.9590    0.0000 C   0  0  0  0  0  0  0  0  0  0  0  0
    3.3086   -3.4460    0.0000 N   0  0  0  0  0  0  0  0  0  0  0  0
    3.0481   -1.9688    0.0000 C   0  0  0  0  0  0  0  0  0  0  0  0
    4.1972   -1.0046    0.0000 C   0  0  0  0  0  0  0  0  0  0  0  0
    5.6067   -1.5176    0.0000 C   0  0  0  0  0  0  0  0  0  0  0  0
    6.7558   -0.5534    0.0000 C   0  0  0  0  0  0  0  0  0  0  0  0
    6.4953    0.9238    0.0000 C   0  0  0  0  0  0  0  0  0  0  0  0
    5.0858    1.4368    0.0000 C   0  0  0  0  0  0  0  0  0  0  0  0
    3.9367    0.4726    0.0000 C   0  0  0  0  0  0  0  0  0  0  0  0
    2.5272    0.9857    0.0000 O   0  0  0  0  0  0  0  0  0  0  0  0
    1.6386   -1.4557    0.0000 P   0  0  0  0  0  0  0  0  0  0  0  0
    2.3886   -0.1567    0.0000 O   0  0  0  0  0  0  0  0  0  0  0  0
    1.3781   -2.9329    0.0000 O   0  0  0  0  0  0  0  0  0  0  0  0
   -0.0314   -3.4460    0.0000 C   0  0  0  0  0  0  0  0  0  0  0  0
   -0.2919   -4.9232    0.0000 C   0  0  0  0  0  0  0  0  0  0  0  0
   -1.7014   -5.4362    0.0000 C   0  0  0  0  0  0  0  0  0  0  0  0
   -2.8505   -4.4720    0.0000 C   0  0  0  0  0  0  0  0  0  0  0  0
   -2.5900   -2.9948    0.0000 C   0  0  0  0  0  0  0  0  0  0  0  0
   -1.1805   -2.4818    0.0000 C   0  0  0  0  0  0  0  0  0  0  0  0
   -0.9200   -1.0046    0.0000 C   0  0  0  0  0  0  0  0  0  0  0  0
   -2.0691   -0.0404    0.0000 C   0  0  0  0  0  0  0  0  0  0  0  0
   -1.8086    1.4368    0.0000 C   0  0  0  0  0  0  0  0  0  0  0  0
   -0.3991    1.9499    0.0000 C   0  0  0  0  0  0  0  0  0  0  0  0
    0.7500    0.9857    0.0000 C   0  0  0  0  0  0  0  0  0  0  0  0
    0.4895   -0.4915    0.0000 C   0  0  0  0  0  0  0  0  0  0  0  0
    4.9786   -5.4362    0.0000 C   0  0  0  0  0  0  0  0  0  0  0  0
    6.3882   -5.9492    0.0000 C   0  0  0  0  0  0  0  0  0  0  0  0
   10.6168   -7.4883    0.0000 C   0  0  0  0  0  0  0  0  0  0  0  0
   12.0263   -8.0014    0.0000 C   0  0  0  0  0  0  0  0  0  0  0  0
   13.6963   -9.9916    0.0000 P   0  0  0  0  0  0  0  0  0  0  0  0
   12.9463   -8.6926    0.0000 O   0  0  0  0  0  0  0  0  0  0  0  0
   14.8454  -10.9558    0.0000 O   0  0  0  0  0  0  0  0  0  0  0  0
   14.5849  -12.4330    0.0000 C   0  0  0  0  0  0  0  0  0  0  0  0
   15.7340  -13.3972    0.0000 C   0  0  0  0  0  0  0  0  0  0  0  0
   15.4735  -14.8744    0.0000 C   0  0  0  0  0  0  0  0  0  0  0  0
   14.0640  -15.3874    0.0000 C   0  0  0  0  0  0  0  0  0  0  0  0
   12.9149  -14.4232    0.0000 C   0  0  0  0  0  0  0  0  0  0  0  0
   13.1754  -12.9460    0.0000 C   0  0  0  0  0  0  0  0  0  0  0  0
   12.0263  -11.9818    0.0000 C   0  0  0  0  0  0  0  0  0  0  0  0
   10.6168  -12.4949    0.0000 C   0  0  0  0  0  0  0  0  0  0  0  0
    9.4677  -11.5307    0.0000 C   0  0  0  0  0  0  0  0  0  0  0  0
    9.7282  -10.0535    0.0000 C   0  0  0  0  0  0  0  0  0  0  0  0
   11.1377   -9.5404    0.0000 C   0  0  0  0  0  0  0  0  0  0  0  0
   12.2868  -10.5046    0.0000 C   0  0  0  0  0  0  0  0  0  0  0  0
  1  2  1  0
  2  3  1  0
  3  4  2  0
  4  5  1  0
  5  6  2  0
  6  7  1  0
  7  8  2  0
  8  9  1  0
  9 10  1  0
 10 11  1  0
 11 12  2  0
 12 13  1  0
 13 14  2  0
 14 15  1  0
 15 16  2  0
 15 17  2  0
 15 18  1  0
 18 19  2  0
 19 20  1  0
 20 21  2  0
 21 22  1  0
 22 23  1  0
 23 24  1  0
 24 25  2  0
 25 26  1  0
 26 27  2  0
 27 28  1  0
 28 29  2  0
 29 30  1  0
 23 31  1  0
 31 32  2  0
 31 33  1  0
 33 34  1  0
 34 35  2  0
 35 36  1  0
 36 37  2  0
 37 38  1  0
 38 39  2  0
 39 40  1  0
 40 41  2  0
 41 42  1  0
 42 43  2  0
 43 44  1  0
 44 45  2  0
 21 46  1  0
 46 47  2  0
 14 48  1  0
 48 49  2  0
  9 50  1  0
 50 51  2  0
 50 52  1  0
 52 53  1  0
 53 54  2  0
 54 55  1  0
 55 56  2  0
 56 57  1  0
 57 58  2  0
 58 59  1  0
 59 60  2  0
 60 61  1  0
 61 62  2  0
 62 63  1  0
 63 64  2  0
  8  3  1  0
 49 11  1  0
 64 50  1  0
 47 18  1  0
 58 53  1  0
 64 59  1  0
 29 24  1  0
 45 31  1  0
 39 34  1  0
 45 40  1  0
M  END
>  <Candidate_ID>  (190) 
CAND_R2_190

>  <Candidate_Name>  (190) 
DSD-OH-methyl

>  <Parent_Seed_ID>  (190) 
TRAIN_077

>  <Parent_Name>  (190) 
DSD

>  <Transformation_Code>  (190) 
OH_methyl

>  <Design_Family>  (190) 
P-N-S

>  <Preparation_Type>  (190) 
Additive

>  <Synthesis_Level>  (190) 
B

>  <Parent_Tanimoto_r3>  (190) 
0.8433734939759037

>  <Max_Train_Tanimoto_r3>  (190) 
0.8433734939759037

>  <Risk_Flags>  (190) 
none

$$$$
CAND_R2_191 | DSD-OH-methyl-all
     RDKit          2D

 65 74  0  0  0  0  0  0  0  0999 V2000
   18.2926   -6.1349    0.0000 C   0  0  0  0  0  0  0  0  0  0  0  0
   17.1435   -7.0991    0.0000 O   0  0  0  0  0  0  0  0  0  0  0  0
   17.4040   -8.5763    0.0000 C   0  0  0  0  0  0  0  0  0  0  0  0
   18.8135   -9.0893    0.0000 C   0  0  0  0  0  0  0  0  0  0  0  0
   19.0740  -10.5665    0.0000 C   0  0  0  0  0  0  0  0  0  0  0  0
   17.9249  -11.5307    0.0000 C   0  0  0  0  0  0  0  0  0  0  0  0
   16.5154  -11.0177    0.0000 C   0  0  0  0  0  0  0  0  0  0  0  0
   16.2549   -9.5404    0.0000 C   0  0  0  0  0  0  0  0  0  0  0  0
   14.8454   -9.0274    0.0000 C   0  0  0  0  0  0  0  0  0  0  0  0
   14.5849   -7.5502    0.0000 N   0  0  0  0  0  0  0  0  0  0  0  0
   13.1754   -7.0372    0.0000 C   0  0  0  0  0  0  0  0  0  0  0  0
   12.9149   -5.5600    0.0000 C   0  0  0  0  0  0  0  0  0  0  0  0
   11.5054   -5.0469    0.0000 C   0  0  0  0  0  0  0  0  0  0  0  0
   10.3563   -6.0111    0.0000 C   0  0  0  0  0  0  0  0  0  0  0  0
    8.9468   -5.4981    0.0000 S   0  0  0  0  0  0  0  0  0  0  0  0
    8.4337   -6.9076    0.0000 O   0  0  0  0  0  0  0  0  0  0  0  0
    9.4598   -4.0885    0.0000 O   0  0  0  0  0  0  0  0  0  0  0  0
    7.5372   -4.9851    0.0000 C   0  0  0  0  0  0  0  0  0  0  0  0
    7.2768   -3.5078    0.0000 C   0  0  0  0  0  0  0  0  0  0  0  0
    5.8672   -2.9948    0.0000 C   0  0  0  0  0  0  0  0  0  0  0  0
    4.7181   -3.9590    0.0000 C   0  0  0  0  0  0  0  0  0  0  0  0
    3.3086   -3.4460    0.0000 N   0  0  0  0  0  0  0  0  0  0  0  0
    3.0481   -1.9688    0.0000 C   0  0  0  0  0  0  0  0  0  0  0  0
    4.1972   -1.0046    0.0000 C   0  0  0  0  0  0  0  0  0  0  0  0
    5.6067   -1.5176    0.0000 C   0  0  0  0  0  0  0  0  0  0  0  0
    6.7558   -0.5534    0.0000 C   0  0  0  0  0  0  0  0  0  0  0  0
    6.4953    0.9238    0.0000 C   0  0  0  0  0  0  0  0  0  0  0  0
    5.0858    1.4368    0.0000 C   0  0  0  0  0  0  0  0  0  0  0  0
    3.9367    0.4726    0.0000 C   0  0  0  0  0  0  0  0  0  0  0  0
    2.5272    0.9857    0.0000 O   0  0  0  0  0  0  0  0  0  0  0  0
    2.2667    2.4629    0.0000 C   0  0  0  0  0  0  0  0  0  0  0  0
    1.6386   -1.4557    0.0000 P   0  0  0  0  0  0  0  0  0  0  0  0
    2.3886   -0.1567    0.0000 O   0  0  0  0  0  0  0  0  0  0  0  0
    1.3781   -2.9329    0.0000 O   0  0  0  0  0  0  0  0  0  0  0  0
   -0.0314   -3.4460    0.0000 C   0  0  0  0  0  0  0  0  0  0  0  0
   -0.2919   -4.9232    0.0000 C   0  0  0  0  0  0  0  0  0  0  0  0
   -1.7014   -5.4362    0.0000 C   0  0  0  0  0  0  0  0  0  0  0  0
   -2.8505   -4.4720    0.0000 C   0  0  0  0  0  0  0  0  0  0  0  0
   -2.5900   -2.9948    0.0000 C   0  0  0  0  0  0  0  0  0  0  0  0
   -1.1805   -2.4818    0.0000 C   0  0  0  0  0  0  0  0  0  0  0  0
   -0.9200   -1.0046    0.0000 C   0  0  0  0  0  0  0  0  0  0  0  0
   -2.0691   -0.0404    0.0000 C   0  0  0  0  0  0  0  0  0  0  0  0
   -1.8086    1.4368    0.0000 C   0  0  0  0  0  0  0  0  0  0  0  0
   -0.3991    1.9499    0.0000 C   0  0  0  0  0  0  0  0  0  0  0  0
    0.7500    0.9857    0.0000 C   0  0  0  0  0  0  0  0  0  0  0  0
    0.4895   -0.4915    0.0000 C   0  0  0  0  0  0  0  0  0  0  0  0
    4.9786   -5.4362    0.0000 C   0  0  0  0  0  0  0  0  0  0  0  0
    6.3882   -5.9492    0.0000 C   0  0  0  0  0  0  0  0  0  0  0  0
   10.6168   -7.4883    0.0000 C   0  0  0  0  0  0  0  0  0  0  0  0
   12.0263   -8.0014    0.0000 C   0  0  0  0  0  0  0  0  0  0  0  0
   13.6963   -9.9916    0.0000 P   0  0  0  0  0  0  0  0  0  0  0  0
   12.9463   -8.6926    0.0000 O   0  0  0  0  0  0  0  0  0  0  0  0
   14.8454  -10.9558    0.0000 O   0  0  0  0  0  0  0  0  0  0  0  0
   14.5849  -12.4330    0.0000 C   0  0  0  0  0  0  0  0  0  0  0  0
   15.7340  -13.3972    0.0000 C   0  0  0  0  0  0  0  0  0  0  0  0
   15.4735  -14.8744    0.0000 C   0  0  0  0  0  0  0  0  0  0  0  0
   14.0640  -15.3874    0.0000 C   0  0  0  0  0  0  0  0  0  0  0  0
   12.9149  -14.4232    0.0000 C   0  0  0  0  0  0  0  0  0  0  0  0
   13.1754  -12.9460    0.0000 C   0  0  0  0  0  0  0  0  0  0  0  0
   12.0263  -11.9818    0.0000 C   0  0  0  0  0  0  0  0  0  0  0  0
   10.6168  -12.4949    0.0000 C   0  0  0  0  0  0  0  0  0  0  0  0
    9.4677  -11.5307    0.0000 C   0  0  0  0  0  0  0  0  0  0  0  0
    9.7282  -10.0535    0.0000 C   0  0  0  0  0  0  0  0  0  0  0  0
   11.1377   -9.5404    0.0000 C   0  0  0  0  0  0  0  0  0  0  0  0
   12.2868  -10.5046    0.0000 C   0  0  0  0  0  0  0  0  0  0  0  0
  1  2  1  0
  2  3  1  0
  3  4  2  0
  4  5  1  0
  5  6  2  0
  6  7  1  0
  7  8  2  0
  8  9  1  0
  9 10  1  0
 10 11  1  0
 11 12  2  0
 12 13  1  0
 13 14  2  0
 14 15  1  0
 15 16  2  0
 15 17  2  0
 15 18  1  0
 18 19  2  0
 19 20  1  0
 20 21  2  0
 21 22  1  0
 22 23  1  0
 23 24  1  0
 24 25  2  0
 25 26  1  0
 26 27  2  0
 27 28  1  0
 28 29  2  0
 29 30  1  0
 30 31  1  0
 23 32  1  0
 32 33  2  0
 32 34  1  0
 34 35  1  0
 35 36  2  0
 36 37  1  0
 37 38  2  0
 38 39  1  0
 39 40  2  0
 40 41  1  0
 41 42  2  0
 42 43  1  0
 43 44  2  0
 44 45  1  0
 45 46  2  0
 21 47  1  0
 47 48  2  0
 14 49  1  0
 49 50  2  0
  9 51  1  0
 51 52  2  0
 51 53  1  0
 53 54  1  0
 54 55  2  0
 55 56  1  0
 56 57  2  0
 57 58  1  0
 58 59  2  0
 59 60  1  0
 60 61  2  0
 61 62  1  0
 62 63  2  0
 63 64  1  0
 64 65  2  0
  8  3  1  0
 50 11  1  0
 65 51  1  0
 48 18  1  0
 59 54  1  0
 65 60  1  0
 29 24  1  0
 46 32  1  0
 40 35  1  0
 46 41  1  0
M  END
>  <Candidate_ID>  (191) 
CAND_R2_191

>  <Candidate_Name>  (191) 
DSD-OH-methyl-all

>  <Parent_Seed_ID>  (191) 
TRAIN_077

>  <Parent_Name>  (191) 
DSD

>  <Transformation_Code>  (191) 
OH_methyl_all

>  <Design_Family>  (191) 
P-N-S

>  <Preparation_Type>  (191) 
Additive

>  <Synthesis_Level>  (191) 
B

>  <Parent_Tanimoto_r3>  (191) 
0.7349397590361446

>  <Max_Train_Tanimoto_r3>  (191) 
0.7349397590361446

>  <Risk_Flags>  (191) 
none

$$$$
CAND_R2_192 | DSD-OH-acetyl
     RDKit          2D

 66 75  0  0  0  0  0  0  0  0999 V2000
   18.0321   -4.6577    0.0000 C   0  0  0  0  0  0  0  0  0  0  0  0
   18.2926   -6.1349    0.0000 C   0  0  0  0  0  0  0  0  0  0  0  0
   19.7021   -6.6479    0.0000 O   0  0  0  0  0  0  0  0  0  0  0  0
   17.1435   -7.0991    0.0000 O   0  0  0  0  0  0  0  0  0  0  0  0
   17.4040   -8.5763    0.0000 C   0  0  0  0  0  0  0  0  0  0  0  0
   18.8135   -9.0893    0.0000 C   0  0  0  0  0  0  0  0  0  0  0  0
   19.0740  -10.5665    0.0000 C   0  0  0  0  0  0  0  0  0  0  0  0
   17.9249  -11.5307    0.0000 C   0  0  0  0  0  0  0  0  0  0  0  0
   16.5154  -11.0177    0.0000 C   0  0  0  0  0  0  0  0  0  0  0  0
   16.2549   -9.5404    0.0000 C   0  0  0  0  0  0  0  0  0  0  0  0
   14.8454   -9.0274    0.0000 C   0  0  0  0  0  0  0  0  0  0  0  0
   14.5849   -7.5502    0.0000 N   0  0  0  0  0  0  0  0  0  0  0  0
   13.1754   -7.0372    0.0000 C   0  0  0  0  0  0  0  0  0  0  0  0
   12.9149   -5.5600    0.0000 C   0  0  0  0  0  0  0  0  0  0  0  0
   11.5054   -5.0469    0.0000 C   0  0  0  0  0  0  0  0  0  0  0  0
   10.3563   -6.0111    0.0000 C   0  0  0  0  0  0  0  0  0  0  0  0
    8.9468   -5.4981    0.0000 S   0  0  0  0  0  0  0  0  0  0  0  0
    8.4337   -6.9076    0.0000 O   0  0  0  0  0  0  0  0  0  0  0  0
    9.4598   -4.0885    0.0000 O   0  0  0  0  0  0  0  0  0  0  0  0
    7.5372   -4.9851    0.0000 C   0  0  0  0  0  0  0  0  0  0  0  0
    7.2768   -3.5078    0.0000 C   0  0  0  0  0  0  0  0  0  0  0  0
    5.8672   -2.9948    0.0000 C   0  0  0  0  0  0  0  0  0  0  0  0
    4.7181   -3.9590    0.0000 C   0  0  0  0  0  0  0  0  0  0  0  0
    3.3086   -3.4460    0.0000 N   0  0  0  0  0  0  0  0  0  0  0  0
    3.0481   -1.9688    0.0000 C   0  0  0  0  0  0  0  0  0  0  0  0
    4.1972   -1.0046    0.0000 C   0  0  0  0  0  0  0  0  0  0  0  0
    5.6067   -1.5176    0.0000 C   0  0  0  0  0  0  0  0  0  0  0  0
    6.7558   -0.5534    0.0000 C   0  0  0  0  0  0  0  0  0  0  0  0
    6.4953    0.9238    0.0000 C   0  0  0  0  0  0  0  0  0  0  0  0
    5.0858    1.4368    0.0000 C   0  0  0  0  0  0  0  0  0  0  0  0
    3.9367    0.4726    0.0000 C   0  0  0  0  0  0  0  0  0  0  0  0
    2.5272    0.9857    0.0000 O   0  0  0  0  0  0  0  0  0  0  0  0
    1.6386   -1.4557    0.0000 P   0  0  0  0  0  0  0  0  0  0  0  0
    2.3886   -0.1567    0.0000 O   0  0  0  0  0  0  0  0  0  0  0  0
    1.3781   -2.9329    0.0000 O   0  0  0  0  0  0  0  0  0  0  0  0
   -0.0314   -3.4460    0.0000 C   0  0  0  0  0  0  0  0  0  0  0  0
   -0.2919   -4.9232    0.0000 C   0  0  0  0  0  0  0  0  0  0  0  0
   -1.7014   -5.4362    0.0000 C   0  0  0  0  0  0  0  0  0  0  0  0
   -2.8505   -4.4720    0.0000 C   0  0  0  0  0  0  0  0  0  0  0  0
   -2.5900   -2.9948    0.0000 C   0  0  0  0  0  0  0  0  0  0  0  0
   -1.1805   -2.4818    0.0000 C   0  0  0  0  0  0  0  0  0  0  0  0
   -0.9200   -1.0046    0.0000 C   0  0  0  0  0  0  0  0  0  0  0  0
   -2.0691   -0.0404    0.0000 C   0  0  0  0  0  0  0  0  0  0  0  0
   -1.8086    1.4368    0.0000 C   0  0  0  0  0  0  0  0  0  0  0  0
   -0.3991    1.9499    0.0000 C   0  0  0  0  0  0  0  0  0  0  0  0
    0.7500    0.9857    0.0000 C   0  0  0  0  0  0  0  0  0  0  0  0
    0.4895   -0.4915    0.0000 C   0  0  0  0  0  0  0  0  0  0  0  0
    4.9786   -5.4362    0.0000 C   0  0  0  0  0  0  0  0  0  0  0  0
    6.3882   -5.9492    0.0000 C   0  0  0  0  0  0  0  0  0  0  0  0
   10.6168   -7.4883    0.0000 C   0  0  0  0  0  0  0  0  0  0  0  0
   12.0263   -8.0014    0.0000 C   0  0  0  0  0  0  0  0  0  0  0  0
   13.6963   -9.9916    0.0000 P   0  0  0  0  0  0  0  0  0  0  0  0
   12.9463   -8.6926    0.0000 O   0  0  0  0  0  0  0  0  0  0  0  0
   14.8454  -10.9558    0.0000 O   0  0  0  0  0  0  0  0  0  0  0  0
   14.5849  -12.4330    0.0000 C   0  0  0  0  0  0  0  0  0  0  0  0
   15.7340  -13.3972    0.0000 C   0  0  0  0  0  0  0  0  0  0  0  0
   15.4735  -14.8744    0.0000 C   0  0  0  0  0  0  0  0  0  0  0  0
   14.0640  -15.3874    0.0000 C   0  0  0  0  0  0  0  0  0  0  0  0
   12.9149  -14.4232    0.0000 C   0  0  0  0  0  0  0  0  0  0  0  0
   13.1754  -12.9460    0.0000 C   0  0  0  0  0  0  0  0  0  0  0  0
   12.0263  -11.9818    0.0000 C   0  0  0  0  0  0  0  0  0  0  0  0
   10.6168  -12.4949    0.0000 C   0  0  0  0  0  0  0  0  0  0  0  0
    9.4677  -11.5307    0.0000 C   0  0  0  0  0  0  0  0  0  0  0  0
    9.7282  -10.0535    0.0000 C   0  0  0  0  0  0  0  0  0  0  0  0
   11.1377   -9.5404    0.0000 C   0  0  0  0  0  0  0  0  0  0  0  0
   12.2868  -10.5046    0.0000 C   0  0  0  0  0  0  0  0  0  0  0  0
  1  2  1  0
  2  3  2  0
  2  4  1  0
  4  5  1  0
  5  6  2  0
  6  7  1  0
  7  8  2  0
  8  9  1  0
  9 10  2  0
 10 11  1  0
 11 12  1  0
 12 13  1  0
 13 14  2  0
 14 15  1  0
 15 16  2  0
 16 17  1  0
 17 18  2  0
 17 19  2  0
 17 20  1  0
 20 21  2  0
 21 22  1  0
 22 23  2  0
 23 24  1  0
 24 25  1  0
 25 26  1  0
 26 27  2  0
 27 28  1  0
 28 29  2  0
 29 30  1  0
 30 31  2  0
 31 32  1  0
 25 33  1  0
 33 34  2  0
 33 35  1  0
 35 36  1  0
 36 37  2  0
 37 38  1  0
 38 39  2  0
 39 40  1  0
 40 41  2  0
 41 42  1  0
 42 43  2  0
 43 44  1  0
 44 45  2  0
 45 46  1  0
 46 47  2  0
 23 48  1  0
 48 49  2  0
 16 50  1  0
 50 51  2  0
 11 52  1  0
 52 53  2  0
 52 54  1  0
 54 55  1  0
 55 56  2  0
 56 57  1  0
 57 58  2  0
 58 59  1  0
 59 60  2  0
 60 61  1  0
 61 62  2  0
 62 63  1  0
 63 64  2  0
 64 65  1  0
 65 66  2  0
 10  5  1  0
 51 13  1  0
 66 52  1  0
 49 20  1  0
 60 55  1  0
 66 61  1  0
 31 26  1  0
 47 33  1  0
 41 36  1  0
 47 42  1  0
M  END
>  <Candidate_ID>  (192) 
CAND_R2_192

>  <Candidate_Name>  (192) 
DSD-OH-acetyl

>  <Parent_Seed_ID>  (192) 
TRAIN_077

>  <Parent_Name>  (192) 
DSD

>  <Transformation_Code>  (192) 
OH_acetyl

>  <Design_Family>  (192) 
P-N-S

>  <Preparation_Type>  (192) 
Additive

>  <Synthesis_Level>  (192) 
B

>  <Parent_Tanimoto_r3>  (192) 
0.7954545454545454

>  <Max_Train_Tanimoto_r3>  (192) 
0.7954545454545454

>  <Risk_Flags>  (192) 
none

$$$$
CAND_R2_193 | DSD-OH-acetyl-all
     RDKit          2D

 69 78  0  0  0  0  0  0  0  0999 V2000
   18.0321   -4.6577    0.0000 C   0  0  0  0  0  0  0  0  0  0  0  0
   18.2926   -6.1349    0.0000 C   0  0  0  0  0  0  0  0  0  0  0  0
   19.7021   -6.6479    0.0000 O   0  0  0  0  0  0  0  0  0  0  0  0
   17.1435   -7.0991    0.0000 O   0  0  0  0  0  0  0  0  0  0  0  0
   17.4040   -8.5763    0.0000 C   0  0  0  0  0  0  0  0  0  0  0  0
   18.8135   -9.0893    0.0000 C   0  0  0  0  0  0  0  0  0  0  0  0
   19.0740  -10.5665    0.0000 C   0  0  0  0  0  0  0  0  0  0  0  0
   17.9249  -11.5307    0.0000 C   0  0  0  0  0  0  0  0  0  0  0  0
   16.5154  -11.0177    0.0000 C   0  0  0  0  0  0  0  0  0  0  0  0
   16.2549   -9.5404    0.0000 C   0  0  0  0  0  0  0  0  0  0  0  0
   14.8454   -9.0274    0.0000 C   0  0  0  0  0  0  0  0  0  0  0  0
   14.5849   -7.5502    0.0000 N   0  0  0  0  0  0  0  0  0  0  0  0
   13.1754   -7.0372    0.0000 C   0  0  0  0  0  0  0  0  0  0  0  0
   12.9149   -5.5600    0.0000 C   0  0  0  0  0  0  0  0  0  0  0  0
   11.5054   -5.0469    0.0000 C   0  0  0  0  0  0  0  0  0  0  0  0
   10.3563   -6.0111    0.0000 C   0  0  0  0  0  0  0  0  0  0  0  0
    8.9468   -5.4981    0.0000 S   0  0  0  0  0  0  0  0  0  0  0  0
    8.4337   -6.9076    0.0000 O   0  0  0  0  0  0  0  0  0  0  0  0
    9.4598   -4.0885    0.0000 O   0  0  0  0  0  0  0  0  0  0  0  0
    7.5372   -4.9851    0.0000 C   0  0  0  0  0  0  0  0  0  0  0  0
    7.2768   -3.5078    0.0000 C   0  0  0  0  0  0  0  0  0  0  0  0
    5.8672   -2.9948    0.0000 C   0  0  0  0  0  0  0  0  0  0  0  0
    4.7181   -3.9590    0.0000 C   0  0  0  0  0  0  0  0  0  0  0  0
    3.3086   -3.4460    0.0000 N   0  0  0  0  0  0  0  0  0  0  0  0
    2.1595   -4.4101    0.0000 C   0  0  0  0  0  0  0  0  0  0  0  0
    2.4200   -5.8874    0.0000 C   0  0  0  0  0  0  0  0  0  0  0  0
    3.8296   -6.4004    0.0000 C   0  0  0  0  0  0  0  0  0  0  0  0
    4.0900   -7.8776    0.0000 C   0  0  0  0  0  0  0  0  0  0  0  0
    2.9410   -8.8418    0.0000 C   0  0  0  0  0  0  0  0  0  0  0  0
    1.5314   -8.3287    0.0000 C   0  0  0  0  0  0  0  0  0  0  0  0
    1.2709   -6.8515    0.0000 C   0  0  0  0  0  0  0  0  0  0  0  0
   -0.1386   -6.3385    0.0000 O   0  0  0  0  0  0  0  0  0  0  0  0
   -1.2877   -7.3027    0.0000 C   0  0  0  0  0  0  0  0  0  0  0  0
   -2.6972   -6.7897    0.0000 C   0  0  0  0  0  0  0  0  0  0  0  0
   -1.0272   -8.7799    0.0000 O   0  0  0  0  0  0  0  0  0  0  0  0
    0.7500   -3.8971    0.0000 P   0  0  0  0  0  0  0  0  0  0  0  0
    0.4895   -5.3743    0.0000 O   0  0  0  0  0  0  0  0  0  0  0  0
    1.5000   -2.5981    0.0000 O   0  0  0  0  0  0  0  0  0  0  0  0
    0.7500   -1.2990    0.0000 C   0  0  0  0  0  0  0  0  0  0  0  0
    1.5000    0.0000    0.0000 C   0  0  0  0  0  0  0  0  0  0  0  0
    0.7500    1.2990    0.0000 C   0  0  0  0  0  0  0  0  0  0  0  0
   -0.7500    1.2990    0.0000 C   0  0  0  0  0  0  0  0  0  0  0  0
   -1.5000    0.0000    0.0000 C   0  0  0  0  0  0  0  0  0  0  0  0
   -0.7500   -1.2990    0.0000 C   0  0  0  0  0  0  0  0  0  0  0  0
   -1.5000   -2.5981    0.0000 C   0  0  0  0  0  0  0  0  0  0  0  0
   -3.0000   -2.5981    0.0000 C   0  0  0  0  0  0  0  0  0  0  0  0
   -3.7500   -3.8971    0.0000 C   0  0  0  0  0  0  0  0  0  0  0  0
   -3.0000   -5.1962    0.0000 C   0  0  0  0  0  0  0  0  0  0  0  0
   -1.5000   -5.1962    0.0000 C   0  0  0  0  0  0  0  0  0  0  0  0
   -0.7500   -3.8971    0.0000 C   0  0  0  0  0  0  0  0  0  0  0  0
    4.9786   -5.4362    0.0000 C   0  0  0  0  0  0  0  0  0  0  0  0
    6.3882   -5.9492    0.0000 C   0  0  0  0  0  0  0  0  0  0  0  0
   10.6168   -7.4883    0.0000 C   0  0  0  0  0  0  0  0  0  0  0  0
   12.0263   -8.0014    0.0000 C   0  0  0  0  0  0  0  0  0  0  0  0
   13.6963   -9.9916    0.0000 P   0  0  0  0  0  0  0  0  0  0  0  0
   12.9463   -8.6926    0.0000 O   0  0  0  0  0  0  0  0  0  0  0  0
   14.8454  -10.9558    0.0000 O   0  0  0  0  0  0  0  0  0  0  0  0
   14.5849  -12.4330    0.0000 C   0  0  0  0  0  0  0  0  0  0  0  0
   15.7340  -13.3972    0.0000 C   0  0  0  0  0  0  0  0  0  0  0  0
   15.4735  -14.8744    0.0000 C   0  0  0  0  0  0  0  0  0  0  0  0
   14.0640  -15.3874    0.0000 C   0  0  0  0  0  0  0  0  0  0  0  0
   12.9149  -14.4232    0.0000 C   0  0  0  0  0  0  0  0  0  0  0  0
   13.1754  -12.9460    0.0000 C   0  0  0  0  0  0  0  0  0  0  0  0
   12.0263  -11.9818    0.0000 C   0  0  0  0  0  0  0  0  0  0  0  0
   10.6168  -12.4949    0.0000 C   0  0  0  0  0  0  0  0  0  0  0  0
    9.4677  -11.5307    0.0000 C   0  0  0  0  0  0  0  0  0  0  0  0
    9.7282  -10.0535    0.0000 C   0  0  0  0  0  0  0  0  0  0  0  0
   11.1377   -9.5404    0.0000 C   0  0  0  0  0  0  0  0  0  0  0  0
   12.2868  -10.5046    0.0000 C   0  0  0  0  0  0  0  0  0  0  0  0
  1  2  1  0
  2  3  2  0
  2  4  1  0
  4  5  1  0
  5  6  2  0
  6  7  1  0
  7  8  2  0
  8  9  1  0
  9 10  2  0
 10 11  1  0
 11 12  1  0
 12 13  1  0
 13 14  2  0
 14 15  1  0
 15 16  2  0
 16 17  1  0
 17 18  2  0
 17 19  2  0
 17 20  1  0
 20 21  2  0
 21 22  1  0
 22 23  2  0
 23 24  1  0
 24 25  1  0
 25 26  1  0
 26 27  2  0
 27 28  1  0
 28 29  2  0
 29 30  1  0
 30 31  2  0
 31 32  1  0
 32 33  1  0
 33 34  1  0
 33 35  2  0
 25 36  1  0
 36 37  2  0
 36 38  1  0
 38 39  1  0
 39 40  2  0
 40 41  1  0
 41 42  2  0
 42 43  1  0
 43 44  2  0
 44 45  1  0
 45 46  2  0
 46 47  1  0
 47 48  2  0
 48 49  1  0
 49 50  2  0
 23 51  1  0
 51 52  2  0
 16 53  1  0
 53 54  2  0
 11 55  1  0
 55 56  2  0
 55 57  1  0
 57 58  1  0
 58 59  2  0
 59 60  1  0
 60 61  2  0
 61 62  1  0
 62 63  2  0
 63 64  1  0
 64 65  2  0
 65 66  1  0
 66 67  2  0
 67 68  1  0
 68 69  2  0
 10  5  1  0
 54 13  1  0
 69 55  1  0
 52 20  1  0
 63 58  1  0
 69 64  1  0
 31 26  1  0
 50 36  1  0
 44 39  1  0
 50 45  1  0
M  END
>  <Candidate_ID>  (193) 
CAND_R2_193

>  <Candidate_Name>  (193) 
DSD-OH-acetyl-all

>  <Parent_Seed_ID>  (193) 
TRAIN_077

>  <Parent_Name>  (193) 
DSD

>  <Transformation_Code>  (193) 
OH_acetyl_all

>  <Design_Family>  (193) 
P-N-S

>  <Preparation_Type>  (193) 
Additive

>  <Synthesis_Level>  (193) 
B

>  <Parent_Tanimoto_r3>  (193) 
0.7045454545454546

>  <Max_Train_Tanimoto_r3>  (193) 
0.7045454545454546

>  <Risk_Flags>  (193) 
none

$$$$
CAND_R2_194 | DSD-OH-allyl
     RDKit          2D

 66 75  0  0  0  0  0  0  0  0999 V2000
   19.1812   -3.6935    0.0000 C   0  0  0  0  0  0  0  0  0  0  0  0
   18.0321   -4.6577    0.0000 C   0  0  0  0  0  0  0  0  0  0  0  0
   18.2926   -6.1349    0.0000 C   0  0  0  0  0  0  0  0  0  0  0  0
   17.1435   -7.0991    0.0000 O   0  0  0  0  0  0  0  0  0  0  0  0
   17.4040   -8.5763    0.0000 C   0  0  0  0  0  0  0  0  0  0  0  0
   18.8135   -9.0893    0.0000 C   0  0  0  0  0  0  0  0  0  0  0  0
   19.0740  -10.5665    0.0000 C   0  0  0  0  0  0  0  0  0  0  0  0
   17.9249  -11.5307    0.0000 C   0  0  0  0  0  0  0  0  0  0  0  0
   16.5154  -11.0177    0.0000 C   0  0  0  0  0  0  0  0  0  0  0  0
   16.2549   -9.5404    0.0000 C   0  0  0  0  0  0  0  0  0  0  0  0
   14.8454   -9.0274    0.0000 C   0  0  0  0  0  0  0  0  0  0  0  0
   14.5849   -7.5502    0.0000 N   0  0  0  0  0  0  0  0  0  0  0  0
   13.1754   -7.0372    0.0000 C   0  0  0  0  0  0  0  0  0  0  0  0
   12.9149   -5.5600    0.0000 C   0  0  0  0  0  0  0  0  0  0  0  0
   11.5054   -5.0469    0.0000 C   0  0  0  0  0  0  0  0  0  0  0  0
   10.3563   -6.0111    0.0000 C   0  0  0  0  0  0  0  0  0  0  0  0
    8.9468   -5.4981    0.0000 S   0  0  0  0  0  0  0  0  0  0  0  0
    8.4337   -6.9076    0.0000 O   0  0  0  0  0  0  0  0  0  0  0  0
    9.4598   -4.0885    0.0000 O   0  0  0  0  0  0  0  0  0  0  0  0
    7.5372   -4.9851    0.0000 C   0  0  0  0  0  0  0  0  0  0  0  0
    7.2768   -3.5078    0.0000 C   0  0  0  0  0  0  0  0  0  0  0  0
    5.8672   -2.9948    0.0000 C   0  0  0  0  0  0  0  0  0  0  0  0
    4.7181   -3.9590    0.0000 C   0  0  0  0  0  0  0  0  0  0  0  0
    3.3086   -3.4460    0.0000 N   0  0  0  0  0  0  0  0  0  0  0  0
    3.0481   -1.9688    0.0000 C   0  0  0  0  0  0  0  0  0  0  0  0
    4.1972   -1.0046    0.0000 C   0  0  0  0  0  0  0  0  0  0  0  0
    5.6067   -1.5176    0.0000 C   0  0  0  0  0  0  0  0  0  0  0  0
    6.7558   -0.5534    0.0000 C   0  0  0  0  0  0  0  0  0  0  0  0
    6.4953    0.9238    0.0000 C   0  0  0  0  0  0  0  0  0  0  0  0
    5.0858    1.4368    0.0000 C   0  0  0  0  0  0  0  0  0  0  0  0
    3.9367    0.4726    0.0000 C   0  0  0  0  0  0  0  0  0  0  0  0
    2.5272    0.9857    0.0000 O   0  0  0  0  0  0  0  0  0  0  0  0
    1.6386   -1.4557    0.0000 P   0  0  0  0  0  0  0  0  0  0  0  0
    2.3886   -0.1567    0.0000 O   0  0  0  0  0  0  0  0  0  0  0  0
    1.3781   -2.9329    0.0000 O   0  0  0  0  0  0  0  0  0  0  0  0
   -0.0314   -3.4460    0.0000 C   0  0  0  0  0  0  0  0  0  0  0  0
   -0.2919   -4.9232    0.0000 C   0  0  0  0  0  0  0  0  0  0  0  0
   -1.7014   -5.4362    0.0000 C   0  0  0  0  0  0  0  0  0  0  0  0
   -2.8505   -4.4720    0.0000 C   0  0  0  0  0  0  0  0  0  0  0  0
   -2.5900   -2.9948    0.0000 C   0  0  0  0  0  0  0  0  0  0  0  0
   -1.1805   -2.4818    0.0000 C   0  0  0  0  0  0  0  0  0  0  0  0
   -0.9200   -1.0046    0.0000 C   0  0  0  0  0  0  0  0  0  0  0  0
   -2.0691   -0.0404    0.0000 C   0  0  0  0  0  0  0  0  0  0  0  0
   -1.8086    1.4368    0.0000 C   0  0  0  0  0  0  0  0  0  0  0  0
   -0.3991    1.9499    0.0000 C   0  0  0  0  0  0  0  0  0  0  0  0
    0.7500    0.9857    0.0000 C   0  0  0  0  0  0  0  0  0  0  0  0
    0.4895   -0.4915    0.0000 C   0  0  0  0  0  0  0  0  0  0  0  0
    4.9786   -5.4362    0.0000 C   0  0  0  0  0  0  0  0  0  0  0  0
    6.3882   -5.9492    0.0000 C   0  0  0  0  0  0  0  0  0  0  0  0
   10.6168   -7.4883    0.0000 C   0  0  0  0  0  0  0  0  0  0  0  0
   12.0263   -8.0014    0.0000 C   0  0  0  0  0  0  0  0  0  0  0  0
   13.6963   -9.9916    0.0000 P   0  0  0  0  0  0  0  0  0  0  0  0
   12.9463   -8.6926    0.0000 O   0  0  0  0  0  0  0  0  0  0  0  0
   14.8454  -10.9558    0.0000 O   0  0  0  0  0  0  0  0  0  0  0  0
   14.5849  -12.4330    0.0000 C   0  0  0  0  0  0  0  0  0  0  0  0
   15.7340  -13.3972    0.0000 C   0  0  0  0  0  0  0  0  0  0  0  0
   15.4735  -14.8744    0.0000 C   0  0  0  0  0  0  0  0  0  0  0  0
   14.0640  -15.3874    0.0000 C   0  0  0  0  0  0  0  0  0  0  0  0
   12.9149  -14.4232    0.0000 C   0  0  0  0  0  0  0  0  0  0  0  0
   13.1754  -12.9460    0.0000 C   0  0  0  0  0  0  0  0  0  0  0  0
   12.0263  -11.9818    0.0000 C   0  0  0  0  0  0  0  0  0  0  0  0
   10.6168  -12.4949    0.0000 C   0  0  0  0  0  0  0  0  0  0  0  0
    9.4677  -11.5307    0.0000 C   0  0  0  0  0  0  0  0  0  0  0  0
    9.7282  -10.0535    0.0000 C   0  0  0  0  0  0  0  0  0  0  0  0
   11.1377   -9.5404    0.0000 C   0  0  0  0  0  0  0  0  0  0  0  0
   12.2868  -10.5046    0.0000 C   0  0  0  0  0  0  0  0  0  0  0  0
  1  2  2  0
  2  3  1  0
  3  4  1  0
  4  5  1  0
  5  6  2  0
  6  7  1  0
  7  8  2  0
  8  9  1  0
  9 10  2  0
 10 11  1  0
 11 12  1  0
 12 13  1  0
 13 14  2  0
 14 15  1  0
 15 16  2  0
 16 17  1  0
 17 18  2  0
 17 19  2  0
 17 20  1  0
 20 21  2  0
 21 22  1  0
 22 23  2  0
 23 24  1  0
 24 25  1  0
 25 26  1  0
 26 27  2  0
 27 28  1  0
 28 29  2  0
 29 30  1  0
 30 31  2  0
 31 32  1  0
 25 33  1  0
 33 34  2  0
 33 35  1  0
 35 36  1  0
 36 37  2  0
 37 38  1  0
 38 39  2  0
 39 40  1  0
 40 41  2  0
 41 42  1  0
 42 43  2  0
 43 44  1  0
 44 45  2  0
 45 46  1  0
 46 47  2  0
 23 48  1  0
 48 49  2  0
 16 50  1  0
 50 51  2  0
 11 52  1  0
 52 53  2  0
 52 54  1  0
 54 55  1  0
 55 56  2  0
 56 57  1  0
 57 58  2  0
 58 59  1  0
 59 60  2  0
 60 61  1  0
 61 62  2  0
 62 63  1  0
 63 64  2  0
 64 65  1  0
 65 66  2  0
 10  5  1  0
 51 13  1  0
 66 52  1  0
 49 20  1  0
 60 55  1  0
 66 61  1  0
 31 26  1  0
 47 33  1  0
 41 36  1  0
 47 42  1  0
M  END
>  <Candidate_ID>  (194) 
CAND_R2_194

>  <Candidate_Name>  (194) 
DSD-OH-allyl

>  <Parent_Seed_ID>  (194) 
TRAIN_077

>  <Parent_Name>  (194) 
DSD

>  <Transformation_Code>  (194) 
OH_allyl

>  <Design_Family>  (194) 
P-N-S

>  <Preparation_Type>  (194) 
Additive

>  <Synthesis_Level>  (194) 
B

>  <Parent_Tanimoto_r3>  (194) 
0.7526881720430108

>  <Max_Train_Tanimoto_r3>  (194) 
0.7526881720430108

>  <Risk_Flags>  (194) 
none

$$$$
CAND_R2_195 | DSD-OH-allyl-all
     RDKit          2D

 69 78  0  0  0  0  0  0  0  0999 V2000
   19.1812   -3.6935    0.0000 C   0  0  0  0  0  0  0  0  0  0  0  0
   18.0321   -4.6577    0.0000 C   0  0  0  0  0  0  0  0  0  0  0  0
   18.2926   -6.1349    0.0000 C   0  0  0  0  0  0  0  0  0  0  0  0
   17.1435   -7.0991    0.0000 O   0  0  0  0  0  0  0  0  0  0  0  0
   17.4040   -8.5763    0.0000 C   0  0  0  0  0  0  0  0  0  0  0  0
   18.8135   -9.0893    0.0000 C   0  0  0  0  0  0  0  0  0  0  0  0
   19.0740  -10.5665    0.0000 C   0  0  0  0  0  0  0  0  0  0  0  0
   17.9249  -11.5307    0.0000 C   0  0  0  0  0  0  0  0  0  0  0  0
   16.5154  -11.0177    0.0000 C   0  0  0  0  0  0  0  0  0  0  0  0
   16.2549   -9.5404    0.0000 C   0  0  0  0  0  0  0  0  0  0  0  0
   14.8454   -9.0274    0.0000 C   0  0  0  0  0  0  0  0  0  0  0  0
   14.5849   -7.5502    0.0000 N   0  0  0  0  0  0  0  0  0  0  0  0
   13.1754   -7.0372    0.0000 C   0  0  0  0  0  0  0  0  0  0  0  0
   12.9149   -5.5600    0.0000 C   0  0  0  0  0  0  0  0  0  0  0  0
   11.5054   -5.0469    0.0000 C   0  0  0  0  0  0  0  0  0  0  0  0
   10.3563   -6.0111    0.0000 C   0  0  0  0  0  0  0  0  0  0  0  0
    8.9468   -5.4981    0.0000 S   0  0  0  0  0  0  0  0  0  0  0  0
    8.4337   -6.9076    0.0000 O   0  0  0  0  0  0  0  0  0  0  0  0
    9.4598   -4.0885    0.0000 O   0  0  0  0  0  0  0  0  0  0  0  0
    7.5372   -4.9851    0.0000 C   0  0  0  0  0  0  0  0  0  0  0  0
    7.2768   -3.5078    0.0000 C   0  0  0  0  0  0  0  0  0  0  0  0
    5.8672   -2.9948    0.0000 C   0  0  0  0  0  0  0  0  0  0  0  0
    4.7181   -3.9590    0.0000 C   0  0  0  0  0  0  0  0  0  0  0  0
    3.3086   -3.4460    0.0000 N   0  0  0  0  0  0  0  0  0  0  0  0
    3.0481   -1.9688    0.0000 C   0  0  0  0  0  0  0  0  0  0  0  0
    4.1972   -1.0046    0.0000 C   0  0  0  0  0  0  0  0  0  0  0  0
    5.6067   -1.5176    0.0000 C   0  0  0  0  0  0  0  0  0  0  0  0
    6.7558   -0.5534    0.0000 C   0  0  0  0  0  0  0  0  0  0  0  0
    6.4953    0.9238    0.0000 C   0  0  0  0  0  0  0  0  0  0  0  0
    5.0858    1.4368    0.0000 C   0  0  0  0  0  0  0  0  0  0  0  0
    3.9367    0.4726    0.0000 C   0  0  0  0  0  0  0  0  0  0  0  0
    2.5272    0.9857    0.0000 O   0  0  0  0  0  0  0  0  0  0  0  0
    2.2667    2.4629    0.0000 C   0  0  0  0  0  0  0  0  0  0  0  0
    3.4158    3.4271    0.0000 C   0  0  0  0  0  0  0  0  0  0  0  0
    3.1553    4.9043    0.0000 C   0  0  0  0  0  0  0  0  0  0  0  0
    1.6386   -1.4557    0.0000 P   0  0  0  0  0  0  0  0  0  0  0  0
    2.3886   -0.1567    0.0000 O   0  0  0  0  0  0  0  0  0  0  0  0
    1.3781   -2.9329    0.0000 O   0  0  0  0  0  0  0  0  0  0  0  0
   -0.0314   -3.4460    0.0000 C   0  0  0  0  0  0  0  0  0  0  0  0
   -0.2919   -4.9232    0.0000 C   0  0  0  0  0  0  0  0  0  0  0  0
   -1.7014   -5.4362    0.0000 C   0  0  0  0  0  0  0  0  0  0  0  0
   -2.8505   -4.4720    0.0000 C   0  0  0  0  0  0  0  0  0  0  0  0
   -2.5900   -2.9948    0.0000 C   0  0  0  0  0  0  0  0  0  0  0  0
   -1.1805   -2.4818    0.0000 C   0  0  0  0  0  0  0  0  0  0  0  0
   -0.9200   -1.0046    0.0000 C   0  0  0  0  0  0  0  0  0  0  0  0
   -2.0691   -0.0404    0.0000 C   0  0  0  0  0  0  0  0  0  0  0  0
   -1.8086    1.4368    0.0000 C   0  0  0  0  0  0  0  0  0  0  0  0
   -0.3991    1.9499    0.0000 C   0  0  0  0  0  0  0  0  0  0  0  0
    0.7500    0.9857    0.0000 C   0  0  0  0  0  0  0  0  0  0  0  0
    0.4895   -0.4915    0.0000 C   0  0  0  0  0  0  0  0  0  0  0  0
    4.9786   -5.4362    0.0000 C   0  0  0  0  0  0  0  0  0  0  0  0
    6.3882   -5.9492    0.0000 C   0  0  0  0  0  0  0  0  0  0  0  0
   10.6168   -7.4883    0.0000 C   0  0  0  0  0  0  0  0  0  0  0  0
   12.0263   -8.0014    0.0000 C   0  0  0  0  0  0  0  0  0  0  0  0
   13.6963   -9.9916    0.0000 P   0  0  0  0  0  0  0  0  0  0  0  0
   12.9463   -8.6926    0.0000 O   0  0  0  0  0  0  0  0  0  0  0  0
   14.8454  -10.9558    0.0000 O   0  0  0  0  0  0  0  0  0  0  0  0
   14.5849  -12.4330    0.0000 C   0  0  0  0  0  0  0  0  0  0  0  0
   15.7340  -13.3972    0.0000 C   0  0  0  0  0  0  0  0  0  0  0  0
   15.4735  -14.8744    0.0000 C   0  0  0  0  0  0  0  0  0  0  0  0
   14.0640  -15.3874    0.0000 C   0  0  0  0  0  0  0  0  0  0  0  0
   12.9149  -14.4232    0.0000 C   0  0  0  0  0  0  0  0  0  0  0  0
   13.1754  -12.9460    0.0000 C   0  0  0  0  0  0  0  0  0  0  0  0
   12.0263  -11.9818    0.0000 C   0  0  0  0  0  0  0  0  0  0  0  0
   10.6168  -12.4949    0.0000 C   0  0  0  0  0  0  0  0  0  0  0  0
    9.4677  -11.5307    0.0000 C   0  0  0  0  0  0  0  0  0  0  0  0
    9.7282  -10.0535    0.0000 C   0  0  0  0  0  0  0  0  0  0  0  0
   11.1377   -9.5404    0.0000 C   0  0  0  0  0  0  0  0  0  0  0  0
   12.2868  -10.5046    0.0000 C   0  0  0  0  0  0  0  0  0  0  0  0
  1  2  2  0
  2  3  1  0
  3  4  1  0
  4  5  1  0
  5  6  2  0
  6  7  1  0
  7  8  2  0
  8  9  1  0
  9 10  2  0
 10 11  1  0
 11 12  1  0
 12 13  1  0
 13 14  2  0
 14 15  1  0
 15 16  2  0
 16 17  1  0
 17 18  2  0
 17 19  2  0
 17 20  1  0
 20 21  2  0
 21 22  1  0
 22 23  2  0
 23 24  1  0
 24 25  1  0
 25 26  1  0
 26 27  2  0
 27 28  1  0
 28 29  2  0
 29 30  1  0
 30 31  2  0
 31 32  1  0
 32 33  1  0
 33 34  1  0
 34 35  2  0
 25 36  1  0
 36 37  2  0
 36 38  1  0
 38 39  1  0
 39 40  2  0
 40 41  1  0
 41 42  2  0
 42 43  1  0
 43 44  2  0
 44 45  1  0
 45 46  2  0
 46 47  1  0
 47 48  2  0
 48 49  1  0
 49 50  2  0
 23 51  1  0
 51 52  2  0
 16 53  1  0
 53 54  2  0
 11 55  1  0
 55 56  2  0
 55 57  1  0
 57 58  1  0
 58 59  2  0
 59 60  1  0
 60 61  2  0
 61 62  1  0
 62 63  2  0
 63 64  1  0
 64 65  2  0
 65 66  1  0
 66 67  2  0
 67 68  1  0
 68 69  2  0
 10  5  1  0
 54 13  1  0
 69 55  1  0
 52 20  1  0
 63 58  1  0
 69 64  1  0
 31 26  1  0
 50 36  1  0
 44 39  1  0
 50 45  1  0
M  END
>  <Candidate_ID>  (195) 
CAND_R2_195

>  <Candidate_Name>  (195) 
DSD-OH-allyl-all

>  <Parent_Seed_ID>  (195) 
TRAIN_077

>  <Parent_Name>  (195) 
DSD

>  <Transformation_Code>  (195) 
OH_allyl_all

>  <Design_Family>  (195) 
P-N-S

>  <Preparation_Type>  (195) 
Additive

>  <Synthesis_Level>  (195) 
B

>  <Parent_Tanimoto_r3>  (195) 
0.6559139784946236

>  <Max_Train_Tanimoto_r3>  (195) 
0.6559139784946236

>  <Risk_Flags>  (195) 
candidate may be outside strict in-domain threshold

$$$$
CAND_R2_196 | DSD-NH-methyl
     RDKit          2D

 64 73  0  0  0  0  0  0  0  0999 V2000
   14.8454   -9.0274    0.0000 C   0  0  0  0  0  0  0  0  0  0  0  0
   14.5849   -7.5502    0.0000 N   0  0  0  0  0  0  0  0  0  0  0  0
   13.1754   -7.0372    0.0000 C   0  0  0  0  0  0  0  0  0  0  0  0
   12.9149   -5.5600    0.0000 C   0  0  0  0  0  0  0  0  0  0  0  0
   11.5054   -5.0469    0.0000 C   0  0  0  0  0  0  0  0  0  0  0  0
   10.3563   -6.0111    0.0000 C   0  0  0  0  0  0  0  0  0  0  0  0
    8.9468   -5.4981    0.0000 S   0  0  0  0  0  0  0  0  0  0  0  0
    8.4337   -6.9076    0.0000 O   0  0  0  0  0  0  0  0  0  0  0  0
    9.4598   -4.0885    0.0000 O   0  0  0  0  0  0  0  0  0  0  0  0
    7.5372   -4.9851    0.0000 C   0  0  0  0  0  0  0  0  0  0  0  0
    7.2768   -3.5078    0.0000 C   0  0  0  0  0  0  0  0  0  0  0  0
    5.8672   -2.9948    0.0000 C   0  0  0  0  0  0  0  0  0  0  0  0
    4.7181   -3.9590    0.0000 C   0  0  0  0  0  0  0  0  0  0  0  0
    3.3086   -3.4460    0.0000 N   0  0  0  0  0  0  0  0  0  0  0  0
    2.1595   -4.4101    0.0000 C   0  0  0  0  0  0  0  0  0  0  0  0
    2.4200   -5.8874    0.0000 C   0  0  0  0  0  0  0  0  0  0  0  0
    3.8296   -6.4004    0.0000 C   0  0  0  0  0  0  0  0  0  0  0  0
    4.0900   -7.8776    0.0000 C   0  0  0  0  0  0  0  0  0  0  0  0
    2.9410   -8.8418    0.0000 C   0  0  0  0  0  0  0  0  0  0  0  0
    1.5314   -8.3287    0.0000 C   0  0  0  0  0  0  0  0  0  0  0  0
    1.2709   -6.8515    0.0000 C   0  0  0  0  0  0  0  0  0  0  0  0
   -0.1386   -6.3385    0.0000 O   0  0  0  0  0  0  0  0  0  0  0  0
    0.7500   -3.8971    0.0000 P   0  0  0  0  0  0  0  0  0  0  0  0
    0.4895   -5.3743    0.0000 O   0  0  0  0  0  0  0  0  0  0  0  0
    1.5000   -2.5981    0.0000 O   0  0  0  0  0  0  0  0  0  0  0  0
    0.7500   -1.2990    0.0000 C   0  0  0  0  0  0  0  0  0  0  0  0
    1.5000    0.0000    0.0000 C   0  0  0  0  0  0  0  0  0  0  0  0
    0.7500    1.2990    0.0000 C   0  0  0  0  0  0  0  0  0  0  0  0
   -0.7500    1.2990    0.0000 C   0  0  0  0  0  0  0  0  0  0  0  0
   -1.5000    0.0000    0.0000 C   0  0  0  0  0  0  0  0  0  0  0  0
   -0.7500   -1.2990    0.0000 C   0  0  0  0  0  0  0  0  0  0  0  0
   -1.5000   -2.5981    0.0000 C   0  0  0  0  0  0  0  0  0  0  0  0
   -3.0000   -2.5981    0.0000 C   0  0  0  0  0  0  0  0  0  0  0  0
   -3.7500   -3.8971    0.0000 C   0  0  0  0  0  0  0  0  0  0  0  0
   -3.0000   -5.1962    0.0000 C   0  0  0  0  0  0  0  0  0  0  0  0
   -1.5000   -5.1962    0.0000 C   0  0  0  0  0  0  0  0  0  0  0  0
   -0.7500   -3.8971    0.0000 C   0  0  0  0  0  0  0  0  0  0  0  0
    4.9786   -5.4362    0.0000 C   0  0  0  0  0  0  0  0  0  0  0  0
    6.3882   -5.9492    0.0000 C   0  0  0  0  0  0  0  0  0  0  0  0
   10.6168   -7.4883    0.0000 C   0  0  0  0  0  0  0  0  0  0  0  0
   12.0263   -8.0014    0.0000 C   0  0  0  0  0  0  0  0  0  0  0  0
   15.7340   -6.5860    0.0000 C   0  0  0  0  0  0  0  0  0  0  0  0
   17.1435   -7.0991    0.0000 C   0  0  0  0  0  0  0  0  0  0  0  0
   17.4040   -8.5763    0.0000 C   0  0  0  0  0  0  0  0  0  0  0  0
   18.8135   -9.0893    0.0000 C   0  0  0  0  0  0  0  0  0  0  0  0
   19.9626   -8.1251    0.0000 C   0  0  0  0  0  0  0  0  0  0  0  0
   19.7021   -6.6479    0.0000 C   0  0  0  0  0  0  0  0  0  0  0  0
   18.2926   -6.1349    0.0000 C   0  0  0  0  0  0  0  0  0  0  0  0
   18.0321   -4.6577    0.0000 O   0  0  0  0  0  0  0  0  0  0  0  0
   15.4735   -5.1088    0.0000 P   0  0  0  0  0  0  0  0  0  0  0  0
   14.0640   -5.6218    0.0000 O   0  0  0  0  0  0  0  0  0  0  0  0
   16.9735   -5.1088    0.0000 O   0  0  0  0  0  0  0  0  0  0  0  0
   17.7235   -3.8098    0.0000 C   0  0  0  0  0  0  0  0  0  0  0  0
   19.2235   -3.8098    0.0000 C   0  0  0  0  0  0  0  0  0  0  0  0
   19.9735   -2.5107    0.0000 C   0  0  0  0  0  0  0  0  0  0  0  0
   19.2235   -1.2117    0.0000 C   0  0  0  0  0  0  0  0  0  0  0  0
   17.7235   -1.2117    0.0000 C   0  0  0  0  0  0  0  0  0  0  0  0
   16.9735   -2.5107    0.0000 C   0  0  0  0  0  0  0  0  0  0  0  0
   15.4735   -2.5107    0.0000 C   0  0  0  0  0  0  0  0  0  0  0  0
   14.7235   -1.2117    0.0000 C   0  0  0  0  0  0  0  0  0  0  0  0
   13.2235   -1.2117    0.0000 C   0  0  0  0  0  0  0  0  0  0  0  0
   12.4735   -2.5107    0.0000 C   0  0  0  0  0  0  0  0  0  0  0  0
   13.2235   -3.8098    0.0000 C   0  0  0  0  0  0  0  0  0  0  0  0
   14.7235   -3.8098    0.0000 C   0  0  0  0  0  0  0  0  0  0  0  0
  1  2  1  0
  2  3  1  0
  3  4  2  0
  4  5  1  0
  5  6  2  0
  6  7  1  0
  7  8  2  0
  7  9  2  0
  7 10  1  0
 10 11  2  0
 11 12  1  0
 12 13  2  0
 13 14  1  0
 14 15  1  0
 15 16  1  0
 16 17  2  0
 17 18  1  0
 18 19  2  0
 19 20  1  0
 20 21  2  0
 21 22  1  0
 15 23  1  0
 23 24  2  0
 23 25  1  0
 25 26  1  0
 26 27  2  0
 27 28  1  0
 28 29  2  0
 29 30  1  0
 30 31  2  0
 31 32  1  0
 32 33  2  0
 33 34  1  0
 34 35  2  0
 35 36  1  0
 36 37  2  0
 13 38  1  0
 38 39  2  0
  6 40  1  0
 40 41  2  0
  2 42  1  0
 42 43  1  0
 43 44  2  0
 44 45  1  0
 45 46  2  0
 46 47  1  0
 47 48  2  0
 48 49  1  0
 42 50  1  0
 50 51  2  0
 50 52  1  0
 52 53  1  0
 53 54  2  0
 54 55  1  0
 55 56  2  0
 56 57  1  0
 57 58  2  0
 58 59  1  0
 59 60  2  0
 60 61  1  0
 61 62  2  0
 62 63  1  0
 63 64  2  0
 41  3  1  0
 48 43  1  0
 64 50  1  0
 39 10  1  0
 58 53  1  0
 64 59  1  0
 21 16  1  0
 37 23  1  0
 31 26  1  0
 37 32  1  0
M  END
>  <Candidate_ID>  (196) 
CAND_R2_196

>  <Candidate_Name>  (196) 
DSD-NH-methyl

>  <Parent_Seed_ID>  (196) 
TRAIN_077

>  <Parent_Name>  (196) 
DSD

>  <Transformation_Code>  (196) 
NH_methyl

>  <Design_Family>  (196) 
P-N-S

>  <Preparation_Type>  (196) 
Additive

>  <Synthesis_Level>  (196) 
B

>  <Parent_Tanimoto_r3>  (196) 
0.7608695652173914

>  <Max_Train_Tanimoto_r3>  (196) 
0.7608695652173914

>  <Risk_Flags>  (196) 
none

$$$$
CAND_R2_197 | DSD-NH-methyl-all
     RDKit          2D

 65 74  0  0  0  0  0  0  0  0999 V2000
    2.3739    9.3359    0.0000 C   0  0  0  0  0  0  0  0  0  0  0  0
    1.2248    8.3717    0.0000 N   0  0  0  0  0  0  0  0  0  0  0  0
    1.4853    6.8945    0.0000 C   0  0  0  0  0  0  0  0  0  0  0  0
    0.3362    5.9303    0.0000 C   0  0  0  0  0  0  0  0  0  0  0  0
    0.5967    4.4531    0.0000 C   0  0  0  0  0  0  0  0  0  0  0  0
    2.0062    3.9401    0.0000 C   0  0  0  0  0  0  0  0  0  0  0  0
    2.2667    2.4629    0.0000 S   0  0  0  0  0  0  0  0  0  0  0  0
    0.7895    2.2024    0.0000 O   0  0  0  0  0  0  0  0  0  0  0  0
    3.7439    2.7234    0.0000 O   0  0  0  0  0  0  0  0  0  0  0  0
    2.5272    0.9857    0.0000 C   0  0  0  0  0  0  0  0  0  0  0  0
    1.3781    0.0215    0.0000 C   0  0  0  0  0  0  0  0  0  0  0  0
    1.6386   -1.4557    0.0000 C   0  0  0  0  0  0  0  0  0  0  0  0
    3.0481   -1.9688    0.0000 C   0  0  0  0  0  0  0  0  0  0  0  0
    3.3086   -3.4460    0.0000 N   0  0  0  0  0  0  0  0  0  0  0  0
    4.7181   -3.9590    0.0000 C   0  0  0  0  0  0  0  0  0  0  0  0
    2.1595   -4.4101    0.0000 C   0  0  0  0  0  0  0  0  0  0  0  0
    2.4200   -5.8874    0.0000 C   0  0  0  0  0  0  0  0  0  0  0  0
    1.2709   -6.8515    0.0000 C   0  0  0  0  0  0  0  0  0  0  0  0
    1.5314   -8.3287    0.0000 C   0  0  0  0  0  0  0  0  0  0  0  0
    2.9410   -8.8418    0.0000 C   0  0  0  0  0  0  0  0  0  0  0  0
    4.0900   -7.8776    0.0000 C   0  0  0  0  0  0  0  0  0  0  0  0
    3.8296   -6.4004    0.0000 C   0  0  0  0  0  0  0  0  0  0  0  0
    4.9786   -5.4362    0.0000 O   0  0  0  0  0  0  0  0  0  0  0  0
    0.7500   -3.8971    0.0000 P   0  0  0  0  0  0  0  0  0  0  0  0
    1.5000   -2.5981    0.0000 O   0  0  0  0  0  0  0  0  0  0  0  0
    0.4895   -5.3743    0.0000 O   0  0  0  0  0  0  0  0  0  0  0  0
   -0.9200   -5.8874    0.0000 C   0  0  0  0  0  0  0  0  0  0  0  0
   -1.1805   -7.3646    0.0000 C   0  0  0  0  0  0  0  0  0  0  0  0
   -2.5900   -7.8776    0.0000 C   0  0  0  0  0  0  0  0  0  0  0  0
   -3.7391   -6.9134    0.0000 C   0  0  0  0  0  0  0  0  0  0  0  0
   -3.4786   -5.4362    0.0000 C   0  0  0  0  0  0  0  0  0  0  0  0
   -2.0691   -4.9232    0.0000 C   0  0  0  0  0  0  0  0  0  0  0  0
   -1.8086   -3.4460    0.0000 C   0  0  0  0  0  0  0  0  0  0  0  0
   -2.9577   -2.4818    0.0000 C   0  0  0  0  0  0  0  0  0  0  0  0
   -2.6972   -1.0046    0.0000 C   0  0  0  0  0  0  0  0  0  0  0  0
   -1.2877   -0.4915    0.0000 C   0  0  0  0  0  0  0  0  0  0  0  0
   -0.1386   -1.4557    0.0000 C   0  0  0  0  0  0  0  0  0  0  0  0
   -0.3991   -2.9329    0.0000 C   0  0  0  0  0  0  0  0  0  0  0  0
    4.1972   -1.0046    0.0000 C   0  0  0  0  0  0  0  0  0  0  0  0
    3.9367    0.4726    0.0000 C   0  0  0  0  0  0  0  0  0  0  0  0
    3.1553    4.9043    0.0000 C   0  0  0  0  0  0  0  0  0  0  0  0
    2.8948    6.3815    0.0000 C   0  0  0  0  0  0  0  0  0  0  0  0
   -0.1847    8.8848    0.0000 C   0  0  0  0  0  0  0  0  0  0  0  0
   -0.4452   10.3620    0.0000 C   0  0  0  0  0  0  0  0  0  0  0  0
    0.7039   11.3262    0.0000 C   0  0  0  0  0  0  0  0  0  0  0  0
    0.4434   12.8034    0.0000 C   0  0  0  0  0  0  0  0  0  0  0  0
   -0.9661   13.3164    0.0000 C   0  0  0  0  0  0  0  0  0  0  0  0
   -2.1152   12.3522    0.0000 C   0  0  0  0  0  0  0  0  0  0  0  0
   -1.8547   10.8750    0.0000 C   0  0  0  0  0  0  0  0  0  0  0  0
   -3.0038    9.9108    0.0000 O   0  0  0  0  0  0  0  0  0  0  0  0
   -1.3338    7.9206    0.0000 P   0  0  0  0  0  0  0  0  0  0  0  0
   -0.1847    6.9564    0.0000 O   0  0  0  0  0  0  0  0  0  0  0  0
   -2.0838    9.2196    0.0000 O   0  0  0  0  0  0  0  0  0  0  0  0
   -3.5838    9.2196    0.0000 C   0  0  0  0  0  0  0  0  0  0  0  0
   -4.3338   10.5187    0.0000 C   0  0  0  0  0  0  0  0  0  0  0  0
   -5.8338   10.5187    0.0000 C   0  0  0  0  0  0  0  0  0  0  0  0
   -6.5838    9.2196    0.0000 C   0  0  0  0  0  0  0  0  0  0  0  0
   -5.8338    7.9206    0.0000 C   0  0  0  0  0  0  0  0  0  0  0  0
   -4.3338    7.9206    0.0000 C   0  0  0  0  0  0  0  0  0  0  0  0
   -3.5838    6.6215    0.0000 C   0  0  0  0  0  0  0  0  0  0  0  0
   -4.3338    5.3225    0.0000 C   0  0  0  0  0  0  0  0  0  0  0  0
   -3.5838    4.0235    0.0000 C   0  0  0  0  0  0  0  0  0  0  0  0
   -2.0838    4.0235    0.0000 C   0  0  0  0  0  0  0  0  0  0  0  0
   -1.3338    5.3225    0.0000 C   0  0  0  0  0  0  0  0  0  0  0  0
   -2.0838    6.6215    0.0000 C   0  0  0  0  0  0  0  0  0  0  0  0
  1  2  1  0
  2  3  1  0
  3  4  2  0
  4  5  1  0
  5  6  2  0
  6  7  1  0
  7  8  2  0
  7  9  2  0
  7 10  1  0
 10 11  2  0
 11 12  1  0
 12 13  2  0
 13 14  1  0
 14 15  1  0
 14 16  1  0
 16 17  1  0
 17 18  2  0
 18 19  1  0
 19 20  2  0
 20 21  1  0
 21 22  2  0
 22 23  1  0
 16 24  1  0
 24 25  2  0
 24 26  1  0
 26 27  1  0
 27 28  2  0
 28 29  1  0
 29 30  2  0
 30 31  1  0
 31 32  2  0
 32 33  1  0
 33 34  2  0
 34 35  1  0
 35 36  2  0
 36 37  1  0
 37 38  2  0
 13 39  1  0
 39 40  2  0
  6 41  1  0
 41 42  2  0
  2 43  1  0
 43 44  1  0
 44 45  2  0
 45 46  1  0
 46 47  2  0
 47 48  1  0
 48 49  2  0
 49 50  1  0
 43 51  1  0
 51 52  2  0
 51 53  1  0
 53 54  1  0
 54 55  2  0
 55 56  1  0
 56 57  2  0
 57 58  1  0
 58 59  2  0
 59 60  1  0
 60 61  2  0
 61 62  1  0
 62 63  2  0
 63 64  1  0
 64 65  2  0
 42  3  1  0
 49 44  1  0
 65 51  1  0
 40 10  1  0
 59 54  1  0
 65 60  1  0
 22 17  1  0
 38 24  1  0
 32 27  1  0
 38 33  1  0
M  END
>  <Candidate_ID>  (197) 
CAND_R2_197

>  <Candidate_Name>  (197) 
DSD-NH-methyl-all

>  <Parent_Seed_ID>  (197) 
TRAIN_077

>  <Parent_Name>  (197) 
DSD

>  <Transformation_Code>  (197) 
NH_methyl_all

>  <Design_Family>  (197) 
P-N-S

>  <Preparation_Type>  (197) 
Additive

>  <Synthesis_Level>  (197) 
B

>  <Parent_Tanimoto_r3>  (197) 
0.5652173913043478

>  <Max_Train_Tanimoto_r3>  (197) 
0.5652173913043478

>  <Risk_Flags>  (197) 
large structural change from parent; candidate may be outside strict in-domain threshold

$$$$
CAND_R2_198 | DSD-NH-hydroxyethyl
     RDKit          2D

 66 75  0  0  0  0  0  0  0  0999 V2000
    3.0334    7.5238    0.0000 O   0  0  0  0  0  0  0  0  0  0  0  0
    3.7834    8.8229    0.0000 P   0  0  0  0  0  0  0  0  0  0  0  0
    2.3739    9.3359    0.0000 C   0  0  0  0  0  0  0  0  0  0  0  0
    1.2248    8.3717    0.0000 N   0  0  0  0  0  0  0  0  0  0  0  0
    1.4853    6.8945    0.0000 C   0  0  0  0  0  0  0  0  0  0  0  0
    0.3362    5.9303    0.0000 C   0  0  0  0  0  0  0  0  0  0  0  0
    0.5967    4.4531    0.0000 C   0  0  0  0  0  0  0  0  0  0  0  0
    2.0062    3.9401    0.0000 C   0  0  0  0  0  0  0  0  0  0  0  0
    2.2667    2.4629    0.0000 S   0  0  0  0  0  0  0  0  0  0  0  0
    0.7895    2.2024    0.0000 O   0  0  0  0  0  0  0  0  0  0  0  0
    3.7439    2.7234    0.0000 O   0  0  0  0  0  0  0  0  0  0  0  0
    2.5272    0.9857    0.0000 C   0  0  0  0  0  0  0  0  0  0  0  0
    1.3781    0.0215    0.0000 C   0  0  0  0  0  0  0  0  0  0  0  0
    1.6386   -1.4557    0.0000 C   0  0  0  0  0  0  0  0  0  0  0  0
    3.0481   -1.9688    0.0000 C   0  0  0  0  0  0  0  0  0  0  0  0
    3.3086   -3.4460    0.0000 N   0  0  0  0  0  0  0  0  0  0  0  0
    4.7181   -3.9590    0.0000 C   0  0  0  0  0  0  0  0  0  0  0  0
    5.8672   -2.9948    0.0000 C   0  0  0  0  0  0  0  0  0  0  0  0
    7.2768   -3.5078    0.0000 O   0  0  0  0  0  0  0  0  0  0  0  0
    2.1595   -4.4101    0.0000 C   0  0  0  0  0  0  0  0  0  0  0  0
    2.4200   -5.8874    0.0000 C   0  0  0  0  0  0  0  0  0  0  0  0
    1.2709   -6.8515    0.0000 C   0  0  0  0  0  0  0  0  0  0  0  0
    1.5314   -8.3287    0.0000 C   0  0  0  0  0  0  0  0  0  0  0  0
    2.9410   -8.8418    0.0000 C   0  0  0  0  0  0  0  0  0  0  0  0
    4.0900   -7.8776    0.0000 C   0  0  0  0  0  0  0  0  0  0  0  0
    3.8296   -6.4004    0.0000 C   0  0  0  0  0  0  0  0  0  0  0  0
    4.9786   -5.4362    0.0000 O   0  0  0  0  0  0  0  0  0  0  0  0
    0.7500   -3.8971    0.0000 P   0  0  0  0  0  0  0  0  0  0  0  0
    1.5000   -2.5981    0.0000 O   0  0  0  0  0  0  0  0  0  0  0  0
    0.4895   -5.3743    0.0000 O   0  0  0  0  0  0  0  0  0  0  0  0
   -0.9200   -5.8874    0.0000 C   0  0  0  0  0  0  0  0  0  0  0  0
   -1.1805   -7.3646    0.0000 C   0  0  0  0  0  0  0  0  0  0  0  0
   -2.5900   -7.8776    0.0000 C   0  0  0  0  0  0  0  0  0  0  0  0
   -3.7391   -6.9134    0.0000 C   0  0  0  0  0  0  0  0  0  0  0  0
   -3.4786   -5.4362    0.0000 C   0  0  0  0  0  0  0  0  0  0  0  0
   -2.0691   -4.9232    0.0000 C   0  0  0  0  0  0  0  0  0  0  0  0
   -1.8086   -3.4460    0.0000 C   0  0  0  0  0  0  0  0  0  0  0  0
   -2.9577   -2.4818    0.0000 C   0  0  0  0  0  0  0  0  0  0  0  0
   -2.6972   -1.0046    0.0000 C   0  0  0  0  0  0  0  0  0  0  0  0
   -1.2877   -0.4915    0.0000 C   0  0  0  0  0  0  0  0  0  0  0  0
   -0.1386   -1.4557    0.0000 C   0  0  0  0  0  0  0  0  0  0  0  0
   -0.3991   -2.9329    0.0000 C   0  0  0  0  0  0  0  0  0  0  0  0
    4.1972   -1.0046    0.0000 C   0  0  0  0  0  0  0  0  0  0  0  0
    3.9367    0.4726    0.0000 C   0  0  0  0  0  0  0  0  0  0  0  0
    3.1553    4.9043    0.0000 C   0  0  0  0  0  0  0  0  0  0  0  0
    2.8948    6.3815    0.0000 C   0  0  0  0  0  0  0  0  0  0  0  0
    2.1134   10.8131    0.0000 C   0  0  0  0  0  0  0  0  0  0  0  0
    3.2625   11.7773    0.0000 C   0  0  0  0  0  0  0  0  0  0  0  0
    3.0020   13.2545    0.0000 C   0  0  0  0  0  0  0  0  0  0  0  0
    1.5925   13.7675    0.0000 C   0  0  0  0  0  0  0  0  0  0  0  0
    0.4434   12.8034    0.0000 C   0  0  0  0  0  0  0  0  0  0  0  0
    0.7039   11.3262    0.0000 C   0  0  0  0  0  0  0  0  0  0  0  0
   -0.4452   10.3620    0.0000 O   0  0  0  0  0  0  0  0  0  0  0  0
    4.0439   10.3001    0.0000 O   0  0  0  0  0  0  0  0  0  0  0  0
    5.4534   10.8131    0.0000 C   0  0  0  0  0  0  0  0  0  0  0  0
    5.7139   12.2903    0.0000 C   0  0  0  0  0  0  0  0  0  0  0  0
    7.1235   12.8034    0.0000 C   0  0  0  0  0  0  0  0  0  0  0  0
    8.2725   11.8392    0.0000 C   0  0  0  0  0  0  0  0  0  0  0  0
    8.0120   10.3620    0.0000 C   0  0  0  0  0  0  0  0  0  0  0  0
    6.6025    9.8489    0.0000 C   0  0  0  0  0  0  0  0  0  0  0  0
    6.3420    8.3717    0.0000 C   0  0  0  0  0  0  0  0  0  0  0  0
    7.4911    7.4075    0.0000 C   0  0  0  0  0  0  0  0  0  0  0  0
    7.2306    5.9303    0.0000 C   0  0  0  0  0  0  0  0  0  0  0  0
    5.8211    5.4173    0.0000 C   0  0  0  0  0  0  0  0  0  0  0  0
    4.6720    6.3815    0.0000 C   0  0  0  0  0  0  0  0  0  0  0  0
    4.9325    7.8587    0.0000 C   0  0  0  0  0  0  0  0  0  0  0  0
  1  2  2  0
  2  3  1  0
  3  4  1  0
  4  5  1  0
  5  6  2  0
  6  7  1  0
  7  8  2  0
  8  9  1  0
  9 10  2  0
  9 11  2  0
  9 12  1  0
 12 13  2  0
 13 14  1  0
 14 15  2  0
 15 16  1  0
 16 17  1  0
 17 18  1  0
 18 19  1  0
 16 20  1  0
 20 21  1  0
 21 22  2  0
 22 23  1  0
 23 24  2  0
 24 25  1  0
 25 26  2  0
 26 27  1  0
 20 28  1  0
 28 29  2  0
 28 30  1  0
 30 31  1  0
 31 32  2  0
 32 33  1  0
 33 34  2  0
 34 35  1  0
 35 36  2  0
 36 37  1  0
 37 38  2  0
 38 39  1  0
 39 40  2  0
 40 41  1  0
 41 42  2  0
 15 43  1  0
 43 44  2  0
  8 45  1  0
 45 46  2  0
  3 47  1  0
 47 48  2  0
 48 49  1  0
 49 50  2  0
 50 51  1  0
 51 52  2  0
 52 53  1  0
  2 54  1  0
 54 55  1  0
 55 56  2  0
 56 57  1  0
 57 58  2  0
 58 59  1  0
 59 60  2  0
 60 61  1  0
 61 62  2  0
 62 63  1  0
 63 64  2  0
 64 65  1  0
 65 66  2  0
 66  2  1  0
 46  5  1  0
 52 47  1  0
 60 55  1  0
 66 61  1  0
 44 12  1  0
 26 21  1  0
 42 28  1  0
 36 31  1  0
 42 37  1  0
M  END
>  <Candidate_ID>  (198) 
CAND_R2_198

>  <Candidate_Name>  (198) 
DSD-NH-hydroxyethyl

>  <Parent_Seed_ID>  (198) 
TRAIN_077

>  <Parent_Name>  (198) 
DSD

>  <Transformation_Code>  (198) 
NH_hydroxyethyl

>  <Design_Family>  (198) 
P-N-S

>  <Preparation_Type>  (198) 
Additive

>  <Synthesis_Level>  (198) 
B

>  <Parent_Tanimoto_r3>  (198) 
0.7216494845360825

>  <Max_Train_Tanimoto_r3>  (198) 
0.7216494845360825

>  <Risk_Flags>  (198) 
none

$$$$
CAND_R2_199 | DSD-NH-hydroxyethyl-all
     RDKit          2D

 69 78  0  0  0  0  0  0  0  0999 V2000
   -0.1847    6.9564    0.0000 O   0  0  0  0  0  0  0  0  0  0  0  0
   -1.3338    7.9206    0.0000 P   0  0  0  0  0  0  0  0  0  0  0  0
   -0.1847    8.8848    0.0000 C   0  0  0  0  0  0  0  0  0  0  0  0
   -0.4452   10.3620    0.0000 C   0  0  0  0  0  0  0  0  0  0  0  0
    0.7039   11.3262    0.0000 C   0  0  0  0  0  0  0  0  0  0  0  0
    0.4434   12.8034    0.0000 C   0  0  0  0  0  0  0  0  0  0  0  0
   -0.9661   13.3164    0.0000 C   0  0  0  0  0  0  0  0  0  0  0  0
   -2.1152   12.3522    0.0000 C   0  0  0  0  0  0  0  0  0  0  0  0
   -1.8547   10.8750    0.0000 C   0  0  0  0  0  0  0  0  0  0  0  0
   -3.0038    9.9108    0.0000 O   0  0  0  0  0  0  0  0  0  0  0  0
    1.2248    8.3717    0.0000 N   0  0  0  0  0  0  0  0  0  0  0  0
    2.3739    9.3359    0.0000 C   0  0  0  0  0  0  0  0  0  0  0  0
    2.1134   10.8131    0.0000 C   0  0  0  0  0  0  0  0  0  0  0  0
    3.2625   11.7773    0.0000 O   0  0  0  0  0  0  0  0  0  0  0  0
    1.4853    6.8945    0.0000 C   0  0  0  0  0  0  0  0  0  0  0  0
    0.3362    5.9303    0.0000 C   0  0  0  0  0  0  0  0  0  0  0  0
    0.5967    4.4531    0.0000 C   0  0  0  0  0  0  0  0  0  0  0  0
    2.0062    3.9401    0.0000 C   0  0  0  0  0  0  0  0  0  0  0  0
    2.2667    2.4629    0.0000 S   0  0  0  0  0  0  0  0  0  0  0  0
    0.7895    2.2024    0.0000 O   0  0  0  0  0  0  0  0  0  0  0  0
    3.7439    2.7234    0.0000 O   0  0  0  0  0  0  0  0  0  0  0  0
    2.5272    0.9857    0.0000 C   0  0  0  0  0  0  0  0  0  0  0  0
    1.3781    0.0215    0.0000 C   0  0  0  0  0  0  0  0  0  0  0  0
    1.6386   -1.4557    0.0000 C   0  0  0  0  0  0  0  0  0  0  0  0
    3.0481   -1.9688    0.0000 C   0  0  0  0  0  0  0  0  0  0  0  0
    3.3086   -3.4460    0.0000 N   0  0  0  0  0  0  0  0  0  0  0  0
    4.7181   -3.9590    0.0000 C   0  0  0  0  0  0  0  0  0  0  0  0
    5.8672   -2.9948    0.0000 C   0  0  0  0  0  0  0  0  0  0  0  0
    7.2768   -3.5078    0.0000 O   0  0  0  0  0  0  0  0  0  0  0  0
    2.1595   -4.4101    0.0000 C   0  0  0  0  0  0  0  0  0  0  0  0
    2.4200   -5.8874    0.0000 C   0  0  0  0  0  0  0  0  0  0  0  0
    1.2709   -6.8515    0.0000 C   0  0  0  0  0  0  0  0  0  0  0  0
    1.5314   -8.3287    0.0000 C   0  0  0  0  0  0  0  0  0  0  0  0
    2.9410   -8.8418    0.0000 C   0  0  0  0  0  0  0  0  0  0  0  0
    4.0900   -7.8776    0.0000 C   0  0  0  0  0  0  0  0  0  0  0  0
    3.8296   -6.4004    0.0000 C   0  0  0  0  0  0  0  0  0  0  0  0
    4.9786   -5.4362    0.0000 O   0  0  0  0  0  0  0  0  0  0  0  0
    0.7500   -3.8971    0.0000 P   0  0  0  0  0  0  0  0  0  0  0  0
    1.5000   -2.5981    0.0000 O   0  0  0  0  0  0  0  0  0  0  0  0
    0.4895   -5.3743    0.0000 O   0  0  0  0  0  0  0  0  0  0  0  0
   -0.9200   -5.8874    0.0000 C   0  0  0  0  0  0  0  0  0  0  0  0
   -1.1805   -7.3646    0.0000 C   0  0  0  0  0  0  0  0  0  0  0  0
   -2.5900   -7.8776    0.0000 C   0  0  0  0  0  0  0  0  0  0  0  0
   -3.7391   -6.9134    0.0000 C   0  0  0  0  0  0  0  0  0  0  0  0
   -3.4786   -5.4362    0.0000 C   0  0  0  0  0  0  0  0  0  0  0  0
   -2.0691   -4.9232    0.0000 C   0  0  0  0  0  0  0  0  0  0  0  0
   -1.8086   -3.4460    0.0000 C   0  0  0  0  0  0  0  0  0  0  0  0
   -2.9577   -2.4818    0.0000 C   0  0  0  0  0  0  0  0  0  0  0  0
   -2.6972   -1.0046    0.0000 C   0  0  0  0  0  0  0  0  0  0  0  0
   -1.2877   -0.4915    0.0000 C   0  0  0  0  0  0  0  0  0  0  0  0
   -0.1386   -1.4557    0.0000 C   0  0  0  0  0  0  0  0  0  0  0  0
   -0.3991   -2.9329    0.0000 C   0  0  0  0  0  0  0  0  0  0  0  0
    4.1972   -1.0046    0.0000 C   0  0  0  0  0  0  0  0  0  0  0  0
    3.9367    0.4726    0.0000 C   0  0  0  0  0  0  0  0  0  0  0  0
    3.1553    4.9043    0.0000 C   0  0  0  0  0  0  0  0  0  0  0  0
    2.8948    6.3815    0.0000 C   0  0  0  0  0  0  0  0  0  0  0  0
   -2.0838    9.2196    0.0000 O   0  0  0  0  0  0  0  0  0  0  0  0
   -3.5838    9.2196    0.0000 C   0  0  0  0  0  0  0  0  0  0  0  0
   -4.3338   10.5187    0.0000 C   0  0  0  0  0  0  0  0  0  0  0  0
   -5.8338   10.5187    0.0000 C   0  0  0  0  0  0  0  0  0  0  0  0
   -6.5838    9.2196    0.0000 C   0  0  0  0  0  0  0  0  0  0  0  0
   -5.8338    7.9206    0.0000 C   0  0  0  0  0  0  0  0  0  0  0  0
   -4.3338    7.9206    0.0000 C   0  0  0  0  0  0  0  0  0  0  0  0
   -3.5838    6.6215    0.0000 C   0  0  0  0  0  0  0  0  0  0  0  0
   -4.3338    5.3225    0.0000 C   0  0  0  0  0  0  0  0  0  0  0  0
   -3.5838    4.0235    0.0000 C   0  0  0  0  0  0  0  0  0  0  0  0
   -2.0838    4.0235    0.0000 C   0  0  0  0  0  0  0  0  0  0  0  0
   -1.3338    5.3225    0.0000 C   0  0  0  0  0  0  0  0  0  0  0  0
   -2.0838    6.6215    0.0000 C   0  0  0  0  0  0  0  0  0  0  0  0
  1  2  2  0
  2  3  1  0
  3  4  1  0
  4  5  2  0
  5  6  1  0
  6  7  2  0
  7  8  1  0
  8  9  2  0
  9 10  1  0
  3 11  1  0
 11 12  1  0
 12 13  1  0
 13 14  1  0
 11 15  1  0
 15 16  2  0
 16 17  1  0
 17 18  2  0
 18 19  1  0
 19 20  2  0
 19 21  2  0
 19 22  1  0
 22 23  2  0
 23 24  1  0
 24 25  2  0
 25 26  1  0
 26 27  1  0
 27 28  1  0
 28 29  1  0
 26 30  1  0
 30 31  1  0
 31 32  2  0
 32 33  1  0
 33 34  2  0
 34 35  1  0
 35 36  2  0
 36 37  1  0
 30 38  1  0
 38 39  2  0
 38 40  1  0
 40 41  1  0
 41 42  2  0
 42 43  1  0
 43 44  2  0
 44 45  1  0
 45 46  2  0
 46 47  1  0
 47 48  2  0
 48 49  1  0
 49 50  2  0
 50 51  1  0
 51 52  2  0
 25 53  1  0
 53 54  2  0
 18 55  1  0
 55 56  2  0
  2 57  1  0
 57 58  1  0
 58 59  2  0
 59 60  1  0
 60 61  2  0
 61 62  1  0
 62 63  2  0
 63 64  1  0
 64 65  2  0
 65 66  1  0
 66 67  2  0
 67 68  1  0
 68 69  2  0
 69  2  1  0
  9  4  1  0
 56 15  1  0
 63 58  1  0
 69 64  1  0
 54 22  1  0
 36 31  1  0
 52 38  1  0
 46 41  1  0
 52 47  1  0
M  END
>  <Candidate_ID>  (199) 
CAND_R2_199

>  <Candidate_Name>  (199) 
DSD-NH-hydroxyethyl-all

>  <Parent_Seed_ID>  (199) 
TRAIN_077

>  <Parent_Name>  (199) 
DSD

>  <Transformation_Code>  (199) 
NH_hydroxyethyl_all

>  <Design_Family>  (199) 
P-N-S

>  <Preparation_Type>  (199) 
Additive

>  <Synthesis_Level>  (199) 
C

>  <Parent_Tanimoto_r3>  (199) 
0.5360824742268041

>  <Max_Train_Tanimoto_r3>  (199) 
0.5360824742268041

>  <Risk_Flags>  (199) 
large structural change from parent; candidate may be outside strict in-domain threshold; exploratory only; excluded from formal screening

$$$$
CAND_R2_200 | DSD-NH-glycidyl
     RDKit          2D

 67 77  0  0  0  0  0  0  0  0999 V2000
    3.0334    7.5238    0.0000 O   0  0  0  0  0  0  0  0  0  0  0  0
    3.7834    8.8229    0.0000 P   0  0  0  0  0  0  0  0  0  0  0  0
    2.3739    9.3359    0.0000 C   0  0  0  0  0  0  0  0  0  0  0  0
    1.2248    8.3717    0.0000 N   0  0  0  0  0  0  0  0  0  0  0  0
    1.4853    6.8945    0.0000 C   0  0  0  0  0  0  0  0  0  0  0  0
    0.3362    5.9303    0.0000 C   0  0  0  0  0  0  0  0  0  0  0  0
    0.5967    4.4531    0.0000 C   0  0  0  0  0  0  0  0  0  0  0  0
    2.0062    3.9401    0.0000 C   0  0  0  0  0  0  0  0  0  0  0  0
    2.2667    2.4629    0.0000 S   0  0  0  0  0  0  0  0  0  0  0  0
    0.7895    2.2024    0.0000 O   0  0  0  0  0  0  0  0  0  0  0  0
    3.7439    2.7234    0.0000 O   0  0  0  0  0  0  0  0  0  0  0  0
    2.5272    0.9857    0.0000 C   0  0  0  0  0  0  0  0  0  0  0  0
    1.3781    0.0215    0.0000 C   0  0  0  0  0  0  0  0  0  0  0  0
    1.6386   -1.4557    0.0000 C   0  0  0  0  0  0  0  0  0  0  0  0
    3.0481   -1.9688    0.0000 C   0  0  0  0  0  0  0  0  0  0  0  0
    3.3086   -3.4460    0.0000 N   0  0  0  0  0  0  0  0  0  0  0  0
    4.7181   -3.9590    0.0000 C   0  0  0  0  0  0  0  0  0  0  0  0
    5.8672   -2.9948    0.0000 C   0  0  0  0  0  0  0  0  0  0  0  0
    6.3802   -1.5853    0.0000 C   0  0  0  0  0  0  0  0  0  0  0  0
    7.3444   -2.7343    0.0000 O   0  0  0  0  0  0  0  0  0  0  0  0
    2.1595   -4.4101    0.0000 C   0  0  0  0  0  0  0  0  0  0  0  0
    2.4200   -5.8874    0.0000 C   0  0  0  0  0  0  0  0  0  0  0  0
    1.2709   -6.8515    0.0000 C   0  0  0  0  0  0  0  0  0  0  0  0
    1.5314   -8.3287    0.0000 C   0  0  0  0  0  0  0  0  0  0  0  0
    2.9410   -8.8418    0.0000 C   0  0  0  0  0  0  0  0  0  0  0  0
    4.0900   -7.8776    0.0000 C   0  0  0  0  0  0  0  0  0  0  0  0
    3.8296   -6.4004    0.0000 C   0  0  0  0  0  0  0  0  0  0  0  0
    4.9786   -5.4362    0.0000 O   0  0  0  0  0  0  0  0  0  0  0  0
    0.7500   -3.8971    0.0000 P   0  0  0  0  0  0  0  0  0  0  0  0
    1.5000   -2.5981    0.0000 O   0  0  0  0  0  0  0  0  0  0  0  0
    0.4895   -5.3743    0.0000 O   0  0  0  0  0  0  0  0  0  0  0  0
   -0.9200   -5.8874    0.0000 C   0  0  0  0  0  0  0  0  0  0  0  0
   -1.1805   -7.3646    0.0000 C   0  0  0  0  0  0  0  0  0  0  0  0
   -2.5900   -7.8776    0.0000 C   0  0  0  0  0  0  0  0  0  0  0  0
   -3.7391   -6.9134    0.0000 C   0  0  0  0  0  0  0  0  0  0  0  0
   -3.4786   -5.4362    0.0000 C   0  0  0  0  0  0  0  0  0  0  0  0
   -2.0691   -4.9232    0.0000 C   0  0  0  0  0  0  0  0  0  0  0  0
   -1.8086   -3.4460    0.0000 C   0  0  0  0  0  0  0  0  0  0  0  0
   -2.9577   -2.4818    0.0000 C   0  0  0  0  0  0  0  0  0  0  0  0
   -2.6972   -1.0046    0.0000 C   0  0  0  0  0  0  0  0  0  0  0  0
   -1.2877   -0.4915    0.0000 C   0  0  0  0  0  0  0  0  0  0  0  0
   -0.1386   -1.4557    0.0000 C   0  0  0  0  0  0  0  0  0  0  0  0
   -0.3991   -2.9329    0.0000 C   0  0  0  0  0  0  0  0  0  0  0  0
    4.1972   -1.0046    0.0000 C   0  0  0  0  0  0  0  0  0  0  0  0
    3.9367    0.4726    0.0000 C   0  0  0  0  0  0  0  0  0  0  0  0
    3.1553    4.9043    0.0000 C   0  0  0  0  0  0  0  0  0  0  0  0
    2.8948    6.3815    0.0000 C   0  0  0  0  0  0  0  0  0  0  0  0
    2.1134   10.8131    0.0000 C   0  0  0  0  0  0  0  0  0  0  0  0
    3.2625   11.7773    0.0000 C   0  0  0  0  0  0  0  0  0  0  0  0
    3.0020   13.2545    0.0000 C   0  0  0  0  0  0  0  0  0  0  0  0
    1.5925   13.7675    0.0000 C   0  0  0  0  0  0  0  0  0  0  0  0
    0.4434   12.8034    0.0000 C   0  0  0  0  0  0  0  0  0  0  0  0
    0.7039   11.3262    0.0000 C   0  0  0  0  0  0  0  0  0  0  0  0
   -0.4452   10.3620    0.0000 O   0  0  0  0  0  0  0  0  0  0  0  0
    4.0439   10.3001    0.0000 O   0  0  0  0  0  0  0  0  0  0  0  0
    5.4534   10.8131    0.0000 C   0  0  0  0  0  0  0  0  0  0  0  0
    5.7139   12.2903    0.0000 C   0  0  0  0  0  0  0  0  0  0  0  0
    7.1235   12.8034    0.0000 C   0  0  0  0  0  0  0  0  0  0  0  0
    8.2725   11.8392    0.0000 C   0  0  0  0  0  0  0  0  0  0  0  0
    8.0120   10.3620    0.0000 C   0  0  0  0  0  0  0  0  0  0  0  0
    6.6025    9.8489    0.0000 C   0  0  0  0  0  0  0  0  0  0  0  0
    6.3420    8.3717    0.0000 C   0  0  0  0  0  0  0  0  0  0  0  0
    7.4911    7.4075    0.0000 C   0  0  0  0  0  0  0  0  0  0  0  0
    7.2306    5.9303    0.0000 C   0  0  0  0  0  0  0  0  0  0  0  0
    5.8211    5.4173    0.0000 C   0  0  0  0  0  0  0  0  0  0  0  0
    4.6720    6.3815    0.0000 C   0  0  0  0  0  0  0  0  0  0  0  0
    4.9325    7.8587    0.0000 C   0  0  0  0  0  0  0  0  0  0  0  0
  1  2  2  0
  2  3  1  0
  3  4  1  0
  4  5  1  0
  5  6  2  0
  6  7  1  0
  7  8  2  0
  8  9  1  0
  9 10  2  0
  9 11  2  0
  9 12  1  0
 12 13  2  0
 13 14  1  0
 14 15  2  0
 15 16  1  0
 16 17  1  0
 17 18  1  0
 18 19  1  0
 19 20  1  0
 16 21  1  0
 21 22  1  0
 22 23  2  0
 23 24  1  0
 24 25  2  0
 25 26  1  0
 26 27  2  0
 27 28  1  0
 21 29  1  0
 29 30  2  0
 29 31  1  0
 31 32  1  0
 32 33  2  0
 33 34  1  0
 34 35  2  0
 35 36  1  0
 36 37  2  0
 37 38  1  0
 38 39  2  0
 39 40  1  0
 40 41  2  0
 41 42  1  0
 42 43  2  0
 15 44  1  0
 44 45  2  0
  8 46  1  0
 46 47  2  0
  3 48  1  0
 48 49  2  0
 49 50  1  0
 50 51  2  0
 51 52  1  0
 52 53  2  0
 53 54  1  0
  2 55  1  0
 55 56  1  0
 56 57  2  0
 57 58  1  0
 58 59  2  0
 59 60  1  0
 60 61  2  0
 61 62  1  0
 62 63  2  0
 63 64  1  0
 64 65  2  0
 65 66  1  0
 66 67  2  0
 67  2  1  0
 47  5  1  0
 53 48  1  0
 61 56  1  0
 67 62  1  0
 45 12  1  0
 20 18  1  0
 27 22  1  0
 43 29  1  0
 37 32  1  0
 43 38  1  0
M  END
>  <Candidate_ID>  (200) 
CAND_R2_200

>  <Candidate_Name>  (200) 
DSD-NH-glycidyl

>  <Parent_Seed_ID>  (200) 
TRAIN_077

>  <Parent_Name>  (200) 
DSD

>  <Transformation_Code>  (200) 
NH_glycidyl

>  <Design_Family>  (200) 
P-N-S

>  <Preparation_Type>  (200) 
Co-curing

>  <Synthesis_Level>  (200) 
B

>  <Parent_Tanimoto_r3>  (200) 
0.693069306930693

>  <Max_Train_Tanimoto_r3>  (200) 
0.693069306930693

>  <Risk_Flags>  (200) 
candidate may be outside strict in-domain threshold

$$$$
CAND_R2_201 | DSD-NH-glycidyl-all
     RDKit          2D

 71 82  0  0  0  0  0  0  0  0999 V2000
   -0.1847    6.9564    0.0000 O   0  0  0  0  0  0  0  0  0  0  0  0
   -1.3338    7.9206    0.0000 P   0  0  0  0  0  0  0  0  0  0  0  0
   -0.1847    8.8848    0.0000 C   0  0  0  0  0  0  0  0  0  0  0  0
   -0.4452   10.3620    0.0000 C   0  0  0  0  0  0  0  0  0  0  0  0
    0.7039   11.3262    0.0000 C   0  0  0  0  0  0  0  0  0  0  0  0
    0.4434   12.8034    0.0000 C   0  0  0  0  0  0  0  0  0  0  0  0
   -0.9661   13.3164    0.0000 C   0  0  0  0  0  0  0  0  0  0  0  0
   -2.1152   12.3522    0.0000 C   0  0  0  0  0  0  0  0  0  0  0  0
   -1.8547   10.8750    0.0000 C   0  0  0  0  0  0  0  0  0  0  0  0
   -3.0038    9.9108    0.0000 O   0  0  0  0  0  0  0  0  0  0  0  0
    1.2248    8.3717    0.0000 N   0  0  0  0  0  0  0  0  0  0  0  0
    2.3739    9.3359    0.0000 C   0  0  0  0  0  0  0  0  0  0  0  0
    2.1134   10.8131    0.0000 C   0  0  0  0  0  0  0  0  0  0  0  0
    1.1492   11.9622    0.0000 C   0  0  0  0  0  0  0  0  0  0  0  0
    2.6265   12.2227    0.0000 O   0  0  0  0  0  0  0  0  0  0  0  0
    1.4853    6.8945    0.0000 C   0  0  0  0  0  0  0  0  0  0  0  0
    0.3362    5.9303    0.0000 C   0  0  0  0  0  0  0  0  0  0  0  0
    0.5967    4.4531    0.0000 C   0  0  0  0  0  0  0  0  0  0  0  0
    2.0062    3.9401    0.0000 C   0  0  0  0  0  0  0  0  0  0  0  0
    2.2667    2.4629    0.0000 S   0  0  0  0  0  0  0  0  0  0  0  0
    0.7895    2.2024    0.0000 O   0  0  0  0  0  0  0  0  0  0  0  0
    3.7439    2.7234    0.0000 O   0  0  0  0  0  0  0  0  0  0  0  0
    2.5272    0.9857    0.0000 C   0  0  0  0  0  0  0  0  0  0  0  0
    1.3781    0.0215    0.0000 C   0  0  0  0  0  0  0  0  0  0  0  0
    1.6386   -1.4557    0.0000 C   0  0  0  0  0  0  0  0  0  0  0  0
    3.0481   -1.9688    0.0000 C   0  0  0  0  0  0  0  0  0  0  0  0
    3.3086   -3.4460    0.0000 N   0  0  0  0  0  0  0  0  0  0  0  0
    4.7181   -3.9590    0.0000 C   0  0  0  0  0  0  0  0  0  0  0  0
    5.8672   -2.9948    0.0000 C   0  0  0  0  0  0  0  0  0  0  0  0
    6.3802   -1.5853    0.0000 C   0  0  0  0  0  0  0  0  0  0  0  0
    7.3444   -2.7343    0.0000 O   0  0  0  0  0  0  0  0  0  0  0  0
    2.1595   -4.4101    0.0000 C   0  0  0  0  0  0  0  0  0  0  0  0
    2.4200   -5.8874    0.0000 C   0  0  0  0  0  0  0  0  0  0  0  0
    1.2709   -6.8515    0.0000 C   0  0  0  0  0  0  0  0  0  0  0  0
    1.5314   -8.3287    0.0000 C   0  0  0  0  0  0  0  0  0  0  0  0
    2.9410   -8.8418    0.0000 C   0  0  0  0  0  0  0  0  0  0  0  0
    4.0900   -7.8776    0.0000 C   0  0  0  0  0  0  0  0  0  0  0  0
    3.8296   -6.4004    0.0000 C   0  0  0  0  0  0  0  0  0  0  0  0
    4.9786   -5.4362    0.0000 O   0  0  0  0  0  0  0  0  0  0  0  0
    0.7500   -3.8971    0.0000 P   0  0  0  0  0  0  0  0  0  0  0  0
    1.5000   -2.5981    0.0000 O   0  0  0  0  0  0  0  0  0  0  0  0
    0.4895   -5.3743    0.0000 O   0  0  0  0  0  0  0  0  0  0  0  0
   -0.9200   -5.8874    0.0000 C   0  0  0  0  0  0  0  0  0  0  0  0
   -1.1805   -7.3646    0.0000 C   0  0  0  0  0  0  0  0  0  0  0  0
   -2.5900   -7.8776    0.0000 C   0  0  0  0  0  0  0  0  0  0  0  0
   -3.7391   -6.9134    0.0000 C   0  0  0  0  0  0  0  0  0  0  0  0
   -3.4786   -5.4362    0.0000 C   0  0  0  0  0  0  0  0  0  0  0  0
   -2.0691   -4.9232    0.0000 C   0  0  0  0  0  0  0  0  0  0  0  0
   -1.8086   -3.4460    0.0000 C   0  0  0  0  0  0  0  0  0  0  0  0
   -2.9577   -2.4818    0.0000 C   0  0  0  0  0  0  0  0  0  0  0  0
   -2.6972   -1.0046    0.0000 C   0  0  0  0  0  0  0  0  0  0  0  0
   -1.2877   -0.4915    0.0000 C   0  0  0  0  0  0  0  0  0  0  0  0
   -0.1386   -1.4557    0.0000 C   0  0  0  0  0  0  0  0  0  0  0  0
   -0.3991   -2.9329    0.0000 C   0  0  0  0  0  0  0  0  0  0  0  0
    4.1972   -1.0046    0.0000 C   0  0  0  0  0  0  0  0  0  0  0  0
    3.9367    0.4726    0.0000 C   0  0  0  0  0  0  0  0  0  0  0  0
    3.1553    4.9043    0.0000 C   0  0  0  0  0  0  0  0  0  0  0  0
    2.8948    6.3815    0.0000 C   0  0  0  0  0  0  0  0  0  0  0  0
   -2.0838    9.2196    0.0000 O   0  0  0  0  0  0  0  0  0  0  0  0
   -3.5838    9.2196    0.0000 C   0  0  0  0  0  0  0  0  0  0  0  0
   -4.3338   10.5187    0.0000 C   0  0  0  0  0  0  0  0  0  0  0  0
   -5.8338   10.5187    0.0000 C   0  0  0  0  0  0  0  0  0  0  0  0
   -6.5838    9.2196    0.0000 C   0  0  0  0  0  0  0  0  0  0  0  0
   -5.8338    7.9206    0.0000 C   0  0  0  0  0  0  0  0  0  0  0  0
   -4.3338    7.9206    0.0000 C   0  0  0  0  0  0  0  0  0  0  0  0
   -3.5838    6.6215    0.0000 C   0  0  0  0  0  0  0  0  0  0  0  0
   -4.3338    5.3225    0.0000 C   0  0  0  0  0  0  0  0  0  0  0  0
   -3.5838    4.0235    0.0000 C   0  0  0  0  0  0  0  0  0  0  0  0
   -2.0838    4.0235    0.0000 C   0  0  0  0  0  0  0  0  0  0  0  0
   -1.3338    5.3225    0.0000 C   0  0  0  0  0  0  0  0  0  0  0  0
   -2.0838    6.6215    0.0000 C   0  0  0  0  0  0  0  0  0  0  0  0
  1  2  2  0
  2  3  1  0
  3  4  1  0
  4  5  2  0
  5  6  1  0
  6  7  2  0
  7  8  1  0
  8  9  2  0
  9 10  1  0
  3 11  1  0
 11 12  1  0
 12 13  1  0
 13 14  1  0
 14 15  1  0
 11 16  1  0
 16 17  2  0
 17 18  1  0
 18 19  2  0
 19 20  1  0
 20 21  2  0
 20 22  2  0
 20 23  1  0
 23 24  2  0
 24 25  1  0
 25 26  2  0
 26 27  1  0
 27 28  1  0
 28 29  1  0
 29 30  1  0
 30 31  1  0
 27 32  1  0
 32 33  1  0
 33 34  2  0
 34 35  1  0
 35 36  2  0
 36 37  1  0
 37 38  2  0
 38 39  1  0
 32 40  1  0
 40 41  2  0
 40 42  1  0
 42 43  1  0
 43 44  2  0
 44 45  1  0
 45 46  2  0
 46 47  1  0
 47 48  2  0
 48 49  1  0
 49 50  2  0
 50 51  1  0
 51 52  2  0
 52 53  1  0
 53 54  2  0
 26 55  1  0
 55 56  2  0
 19 57  1  0
 57 58  2  0
  2 59  1  0
 59 60  1  0
 60 61  2  0
 61 62  1  0
 62 63  2  0
 63 64  1  0
 64 65  2  0
 65 66  1  0
 66 67  2  0
 67 68  1  0
 68 69  2  0
 69 70  1  0
 70 71  2  0
 71  2  1  0
  9  4  1  0
 15 13  1  0
 58 16  1  0
 65 60  1  0
 71 66  1  0
 56 23  1  0
 31 29  1  0
 38 33  1  0
 54 40  1  0
 48 43  1  0
 54 49  1  0
M  END
>  <Candidate_ID>  (201) 
CAND_R2_201

>  <Candidate_Name>  (201) 
DSD-NH-glycidyl-all

>  <Parent_Seed_ID>  (201) 
TRAIN_077

>  <Parent_Name>  (201) 
DSD

>  <Transformation_Code>  (201) 
NH_glycidyl_all

>  <Design_Family>  (201) 
P-N-S

>  <Preparation_Type>  (201) 
Co-curing

>  <Synthesis_Level>  (201) 
C

>  <Parent_Tanimoto_r3>  (201) 
0.5247524752475248

>  <Max_Train_Tanimoto_r3>  (201) 
0.5247524752475248

>  <Risk_Flags>  (201) 
large structural change from parent; candidate may be outside strict in-domain threshold; exploratory only; excluded from formal screening

$$$$
CAND_R2_202 | DOPO-PPO-amino
     RDKit          2D

 57 65  0  0  0  0  0  0  0  0999 V2000
   -1.8044   -6.6869    0.0000 N   0  0  0  0  0  0  0  0  0  0  0  0
   -0.8402   -7.8360    0.0000 C   0  0  0  0  0  0  0  0  0  0  0  0
    0.6370   -7.5755    0.0000 C   0  0  0  0  0  0  0  0  0  0  0  0
    1.6012   -8.7246    0.0000 C   0  0  0  0  0  0  0  0  0  0  0  0
    1.0882  -10.1341    0.0000 C   0  0  0  0  0  0  0  0  0  0  0  0
    2.0524  -11.2832    0.0000 P   0  0  0  0  0  0  0  0  0  0  0  0
    3.0165  -12.4322    0.0000 O   0  0  0  0  0  0  0  0  0  0  0  0
    3.2014  -10.3190    0.0000 O   0  0  0  0  0  0  0  0  0  0  0  0
    4.6110  -10.8320    0.0000 C   0  0  0  0  0  0  0  0  0  0  0  0
    4.8714  -12.3092    0.0000 C   0  0  0  0  0  0  0  0  0  0  0  0
    6.2810  -12.8223    0.0000 C   0  0  0  0  0  0  0  0  0  0  0  0
    7.4300  -11.8581    0.0000 C   0  0  0  0  0  0  0  0  0  0  0  0
    8.8396  -12.3711    0.0000 C   0  0  0  0  0  0  0  0  0  0  0  0
    9.1001  -13.8483    0.0000 O   0  0  0  0  0  0  0  0  0  0  0  0
    9.9887  -11.4069    0.0000 P   0  0  0  0  0  0  0  0  0  0  0  0
    8.8396  -10.4427    0.0000 O   0  0  0  0  0  0  0  0  0  0  0  0
   10.7387  -12.7060    0.0000 O   0  0  0  0  0  0  0  0  0  0  0  0
   12.2387  -12.7060    0.0000 C   0  0  0  0  0  0  0  0  0  0  0  0
   12.9887  -14.0050    0.0000 C   0  0  0  0  0  0  0  0  0  0  0  0
   14.4887  -14.0050    0.0000 C   0  0  0  0  0  0  0  0  0  0  0  0
   15.2387  -12.7060    0.0000 C   0  0  0  0  0  0  0  0  0  0  0  0
   14.4887  -11.4069    0.0000 C   0  0  0  0  0  0  0  0  0  0  0  0
   12.9887  -11.4069    0.0000 C   0  0  0  0  0  0  0  0  0  0  0  0
   12.2387  -10.1079    0.0000 C   0  0  0  0  0  0  0  0  0  0  0  0
   12.9887   -8.8089    0.0000 C   0  0  0  0  0  0  0  0  0  0  0  0
   12.2387   -7.5098    0.0000 C   0  0  0  0  0  0  0  0  0  0  0  0
   10.7387   -7.5098    0.0000 C   0  0  0  0  0  0  0  0  0  0  0  0
    9.9887   -8.8089    0.0000 C   0  0  0  0  0  0  0  0  0  0  0  0
   10.7387  -10.1079    0.0000 C   0  0  0  0  0  0  0  0  0  0  0  0
    7.1696  -10.3809    0.0000 C   0  0  0  0  0  0  0  0  0  0  0  0
    5.7600   -9.8678    0.0000 C   0  0  0  0  0  0  0  0  0  0  0  0
    0.9033  -12.2474    0.0000 O   0  0  0  0  0  0  0  0  0  0  0  0
    1.1638  -13.7246    0.0000 C   0  0  0  0  0  0  0  0  0  0  0  0
    2.5733  -14.2376    0.0000 C   0  0  0  0  0  0  0  0  0  0  0  0
    2.8338  -15.7148    0.0000 C   0  0  0  0  0  0  0  0  0  0  0  0
    1.6847  -16.6790    0.0000 C   0  0  0  0  0  0  0  0  0  0  0  0
    1.9452  -18.1562    0.0000 C   0  0  0  0  0  0  0  0  0  0  0  0
    3.3547  -18.6692    0.0000 O   0  0  0  0  0  0  0  0  0  0  0  0
    0.7961  -19.1204    0.0000 P   0  0  0  0  0  0  0  0  0  0  0  0
    0.0461  -17.8213    0.0000 O   0  0  0  0  0  0  0  0  0  0  0  0
    1.9452  -20.0846    0.0000 O   0  0  0  0  0  0  0  0  0  0  0  0
    1.6847  -21.5618    0.0000 C   0  0  0  0  0  0  0  0  0  0  0  0
    2.8338  -22.5260    0.0000 C   0  0  0  0  0  0  0  0  0  0  0  0
    2.5733  -24.0032    0.0000 C   0  0  0  0  0  0  0  0  0  0  0  0
    1.1638  -24.5162    0.0000 C   0  0  0  0  0  0  0  0  0  0  0  0
    0.0147  -23.5520    0.0000 C   0  0  0  0  0  0  0  0  0  0  0  0
    0.2752  -22.0748    0.0000 C   0  0  0  0  0  0  0  0  0  0  0  0
   -0.8739  -21.1106    0.0000 C   0  0  0  0  0  0  0  0  0  0  0  0
   -2.2834  -21.6237    0.0000 C   0  0  0  0  0  0  0  0  0  0  0  0
   -3.4325  -20.6595    0.0000 C   0  0  0  0  0  0  0  0  0  0  0  0
   -3.1720  -19.1823    0.0000 C   0  0  0  0  0  0  0  0  0  0  0  0
   -1.7625  -18.6692    0.0000 C   0  0  0  0  0  0  0  0  0  0  0  0
   -0.6134  -19.6334    0.0000 C   0  0  0  0  0  0  0  0  0  0  0  0
    0.2752  -16.1660    0.0000 C   0  0  0  0  0  0  0  0  0  0  0  0
    0.0147  -14.6887    0.0000 C   0  0  0  0  0  0  0  0  0  0  0  0
   -0.3890  -10.3946    0.0000 C   0  0  0  0  0  0  0  0  0  0  0  0
   -1.3532   -9.2455    0.0000 C   0  0  0  0  0  0  0  0  0  0  0  0
  1  2  1  0
  2  3  2  0
  3  4  1  0
  4  5  2  0
  5  6  1  0
  6  7  2  0
  6  8  1  0
  8  9  1  0
  9 10  2  0
 10 11  1  0
 11 12  2  0
 12 13  1  0
 13 14  1  0
 13 15  1  0
 15 16  2  0
 15 17  1  0
 17 18  1  0
 18 19  2  0
 19 20  1  0
 20 21  2  0
 21 22  1  0
 22 23  2  0
 23 24  1  0
 24 25  2  0
 25 26  1  0
 26 27  2  0
 27 28  1  0
 28 29  2  0
 12 30  1  0
 30 31  2  0
  6 32  1  0
 32 33  1  0
 33 34  2  0
 34 35  1  0
 35 36  2  0
 36 37  1  0
 37 38  1  0
 37 39  1  0
 39 40  2  0
 39 41  1  0
 41 42  1  0
 42 43  2  0
 43 44  1  0
 44 45  2  0
 45 46  1  0
 46 47  2  0
 47 48  1  0
 48 49  2  0
 49 50  1  0
 50 51  2  0
 51 52  1  0
 52 53  2  0
 36 54  1  0
 54 55  2  0
  5 56  1  0
 56 57  2  0
 57  2  1  0
 31  9  1  0
 55 33  1  0
 29 15  1  0
 53 39  1  0
 23 18  1  0
 29 24  1  0
 47 42  1  0
 53 48  1  0
M  END
>  <Candidate_ID>  (202) 
CAND_R2_202

>  <Candidate_Name>  (202) 
DOPO-PPO-amino

>  <Parent_Seed_ID>  (202) 
TRAIN_080

>  <Parent_Name>  (202) 
DOPO-PPO

>  <Transformation_Code>  (202) 
amino

>  <Design_Family>  (202) 
P-N

>  <Preparation_Type>  (202) 
Co-curing

>  <Synthesis_Level>  (202) 
B

>  <Parent_Tanimoto_r3>  (202) 
0.7974683544303798

>  <Max_Train_Tanimoto_r3>  (202) 
0.7974683544303798

>  <Risk_Flags>  (202) 
none

$$$$
CAND_R2_203 | DOPO-PPO-hydroxy
     RDKit          2D

 57 65  0  0  0  0  0  0  0  0999 V2000
    3.0165  -12.4322    0.0000 O   0  0  0  0  0  0  0  0  0  0  0  0
    2.0524  -11.2832    0.0000 P   0  0  0  0  0  0  0  0  0  0  0  0
    3.2014  -10.3190    0.0000 O   0  0  0  0  0  0  0  0  0  0  0  0
    4.6110  -10.8320    0.0000 C   0  0  0  0  0  0  0  0  0  0  0  0
    5.7600   -9.8678    0.0000 C   0  0  0  0  0  0  0  0  0  0  0  0
    7.1696  -10.3809    0.0000 C   0  0  0  0  0  0  0  0  0  0  0  0
    7.4300  -11.8581    0.0000 C   0  0  0  0  0  0  0  0  0  0  0  0
    8.8396  -12.3711    0.0000 C   0  0  0  0  0  0  0  0  0  0  0  0
    9.9887  -11.4069    0.0000 O   0  0  0  0  0  0  0  0  0  0  0  0
    9.1001  -13.8483    0.0000 P   0  0  0  0  0  0  0  0  0  0  0  0
    7.6001  -13.8483    0.0000 O   0  0  0  0  0  0  0  0  0  0  0  0
   10.5096  -13.3353    0.0000 O   0  0  0  0  0  0  0  0  0  0  0  0
   11.6587  -14.2995    0.0000 C   0  0  0  0  0  0  0  0  0  0  0  0
   13.0682  -13.7864    0.0000 C   0  0  0  0  0  0  0  0  0  0  0  0
   14.2173  -14.7506    0.0000 C   0  0  0  0  0  0  0  0  0  0  0  0
   13.9568  -16.2278    0.0000 C   0  0  0  0  0  0  0  0  0  0  0  0
   12.5473  -16.7409    0.0000 C   0  0  0  0  0  0  0  0  0  0  0  0
   11.3982  -15.7767    0.0000 C   0  0  0  0  0  0  0  0  0  0  0  0
    9.9887  -16.2897    0.0000 C   0  0  0  0  0  0  0  0  0  0  0  0
    9.7282  -17.7669    0.0000 C   0  0  0  0  0  0  0  0  0  0  0  0
    8.3186  -18.2800    0.0000 C   0  0  0  0  0  0  0  0  0  0  0  0
    7.1696  -17.3158    0.0000 C   0  0  0  0  0  0  0  0  0  0  0  0
    7.4300  -15.8386    0.0000 C   0  0  0  0  0  0  0  0  0  0  0  0
    8.8396  -15.3255    0.0000 C   0  0  0  0  0  0  0  0  0  0  0  0
    6.2810  -12.8223    0.0000 C   0  0  0  0  0  0  0  0  0  0  0  0
    4.8714  -12.3092    0.0000 C   0  0  0  0  0  0  0  0  0  0  0  0
    0.9033  -12.2474    0.0000 O   0  0  0  0  0  0  0  0  0  0  0  0
    1.1638  -13.7246    0.0000 C   0  0  0  0  0  0  0  0  0  0  0  0
    2.5733  -14.2376    0.0000 C   0  0  0  0  0  0  0  0  0  0  0  0
    2.8338  -15.7148    0.0000 C   0  0  0  0  0  0  0  0  0  0  0  0
    1.6847  -16.6790    0.0000 C   0  0  0  0  0  0  0  0  0  0  0  0
    1.9452  -18.1562    0.0000 C   0  0  0  0  0  0  0  0  0  0  0  0
    3.3547  -18.6692    0.0000 O   0  0  0  0  0  0  0  0  0  0  0  0
    0.7961  -19.1204    0.0000 P   0  0  0  0  0  0  0  0  0  0  0  0
    0.0461  -17.8213    0.0000 O   0  0  0  0  0  0  0  0  0  0  0  0
    1.9452  -20.0846    0.0000 O   0  0  0  0  0  0  0  0  0  0  0  0
    1.6847  -21.5618    0.0000 C   0  0  0  0  0  0  0  0  0  0  0  0
    2.8338  -22.5260    0.0000 C   0  0  0  0  0  0  0  0  0  0  0  0
    2.5733  -24.0032    0.0000 C   0  0  0  0  0  0  0  0  0  0  0  0
    1.1638  -24.5162    0.0000 C   0  0  0  0  0  0  0  0  0  0  0  0
    0.0147  -23.5520    0.0000 C   0  0  0  0  0  0  0  0  0  0  0  0
    0.2752  -22.0748    0.0000 C   0  0  0  0  0  0  0  0  0  0  0  0
   -0.8739  -21.1106    0.0000 C   0  0  0  0  0  0  0  0  0  0  0  0
   -2.2834  -21.6237    0.0000 C   0  0  0  0  0  0  0  0  0  0  0  0
   -3.4325  -20.6595    0.0000 C   0  0  0  0  0  0  0  0  0  0  0  0
   -3.1720  -19.1823    0.0000 C   0  0  0  0  0  0  0  0  0  0  0  0
   -1.7625  -18.6692    0.0000 C   0  0  0  0  0  0  0  0  0  0  0  0
   -0.6134  -19.6334    0.0000 C   0  0  0  0  0  0  0  0  0  0  0  0
    0.2752  -16.1660    0.0000 C   0  0  0  0  0  0  0  0  0  0  0  0
    0.0147  -14.6887    0.0000 C   0  0  0  0  0  0  0  0  0  0  0  0
    1.0882  -10.1341    0.0000 C   0  0  0  0  0  0  0  0  0  0  0  0
    1.6012   -8.7246    0.0000 C   0  0  0  0  0  0  0  0  0  0  0  0
    0.6370   -7.5755    0.0000 C   0  0  0  0  0  0  0  0  0  0  0  0
   -0.8402   -7.8360    0.0000 C   0  0  0  0  0  0  0  0  0  0  0  0
   -1.8044   -6.6869    0.0000 O   0  0  0  0  0  0  0  0  0  0  0  0
   -1.3532   -9.2455    0.0000 C   0  0  0  0  0  0  0  0  0  0  0  0
   -0.3890  -10.3946    0.0000 C   0  0  0  0  0  0  0  0  0  0  0  0
  1  2  2  0
  2  3  1  0
  3  4  1  0
  4  5  2  0
  5  6  1  0
  6  7  2  0
  7  8  1  0
  8  9  1  0
  8 10  1  0
 10 11  2  0
 10 12  1  0
 12 13  1  0
 13 14  2  0
 14 15  1  0
 15 16  2  0
 16 17  1  0
 17 18  2  0
 18 19  1  0
 19 20  2  0
 20 21  1  0
 21 22  2  0
 22 23  1  0
 23 24  2  0
  7 25  1  0
 25 26  2  0
  2 27  1  0
 27 28  1  0
 28 29  2  0
 29 30  1  0
 30 31  2  0
 31 32  1  0
 32 33  1  0
 32 34  1  0
 34 35  2  0
 34 36  1  0
 36 37  1  0
 37 38  2  0
 38 39  1  0
 39 40  2  0
 40 41  1  0
 41 42  2  0
 42 43  1  0
 43 44  2  0
 44 45  1  0
 45 46  2  0
 46 47  1  0
 47 48  2  0
 31 49  1  0
 49 50  2  0
  2 51  1  0
 51 52  2  0
 52 53  1  0
 53 54  2  0
 54 55  1  0
 54 56  1  0
 56 57  2  0
 26  4  1  0
 50 28  1  0
 57 51  1  0
 24 10  1  0
 48 34  1  0
 18 13  1  0
 24 19  1  0
 42 37  1  0
 48 43  1  0
M  END
>  <Candidate_ID>  (203) 
CAND_R2_203

>  <Candidate_Name>  (203) 
DOPO-PPO-hydroxy

>  <Parent_Seed_ID>  (203) 
TRAIN_080

>  <Parent_Name>  (203) 
DOPO-PPO

>  <Transformation_Code>  (203) 
hydroxy

>  <Design_Family>  (203) 
P-only

>  <Preparation_Type>  (203) 
Additive

>  <Synthesis_Level>  (203) 
B

>  <Parent_Tanimoto_r3>  (203) 
0.8076923076923077

>  <Max_Train_Tanimoto_r3>  (203) 
0.8076923076923077

>  <Risk_Flags>  (203) 
none

$$$$
CAND_R2_204 | DOPO-PPO-hydroxymethyl
     RDKit          2D

 58 66  0  0  0  0  0  0  0  0999 V2000
    3.0165  -12.4322    0.0000 O   0  0  0  0  0  0  0  0  0  0  0  0
    2.0524  -11.2832    0.0000 P   0  0  0  0  0  0  0  0  0  0  0  0
    3.2014  -10.3190    0.0000 O   0  0  0  0  0  0  0  0  0  0  0  0
    4.6110  -10.8320    0.0000 C   0  0  0  0  0  0  0  0  0  0  0  0
    5.7600   -9.8678    0.0000 C   0  0  0  0  0  0  0  0  0  0  0  0
    7.1696  -10.3809    0.0000 C   0  0  0  0  0  0  0  0  0  0  0  0
    7.4300  -11.8581    0.0000 C   0  0  0  0  0  0  0  0  0  0  0  0
    8.8396  -12.3711    0.0000 C   0  0  0  0  0  0  0  0  0  0  0  0
    9.9887  -11.4069    0.0000 O   0  0  0  0  0  0  0  0  0  0  0  0
    9.1001  -13.8483    0.0000 P   0  0  0  0  0  0  0  0  0  0  0  0
    7.6001  -13.8483    0.0000 O   0  0  0  0  0  0  0  0  0  0  0  0
   10.5096  -13.3353    0.0000 O   0  0  0  0  0  0  0  0  0  0  0  0
   11.6587  -14.2995    0.0000 C   0  0  0  0  0  0  0  0  0  0  0  0
   13.0682  -13.7864    0.0000 C   0  0  0  0  0  0  0  0  0  0  0  0
   14.2173  -14.7506    0.0000 C   0  0  0  0  0  0  0  0  0  0  0  0
   13.9568  -16.2278    0.0000 C   0  0  0  0  0  0  0  0  0  0  0  0
   12.5473  -16.7409    0.0000 C   0  0  0  0  0  0  0  0  0  0  0  0
   11.3982  -15.7767    0.0000 C   0  0  0  0  0  0  0  0  0  0  0  0
    9.9887  -16.2897    0.0000 C   0  0  0  0  0  0  0  0  0  0  0  0
    9.7282  -17.7669    0.0000 C   0  0  0  0  0  0  0  0  0  0  0  0
    8.3186  -18.2800    0.0000 C   0  0  0  0  0  0  0  0  0  0  0  0
    7.1696  -17.3158    0.0000 C   0  0  0  0  0  0  0  0  0  0  0  0
    7.4300  -15.8386    0.0000 C   0  0  0  0  0  0  0  0  0  0  0  0
    8.8396  -15.3255    0.0000 C   0  0  0  0  0  0  0  0  0  0  0  0
    6.2810  -12.8223    0.0000 C   0  0  0  0  0  0  0  0  0  0  0  0
    4.8714  -12.3092    0.0000 C   0  0  0  0  0  0  0  0  0  0  0  0
    0.9033  -12.2474    0.0000 O   0  0  0  0  0  0  0  0  0  0  0  0
    1.1638  -13.7246    0.0000 C   0  0  0  0  0  0  0  0  0  0  0  0
    2.5733  -14.2376    0.0000 C   0  0  0  0  0  0  0  0  0  0  0  0
    2.8338  -15.7148    0.0000 C   0  0  0  0  0  0  0  0  0  0  0  0
    1.6847  -16.6790    0.0000 C   0  0  0  0  0  0  0  0  0  0  0  0
    1.9452  -18.1562    0.0000 C   0  0  0  0  0  0  0  0  0  0  0  0
    3.3547  -18.6692    0.0000 O   0  0  0  0  0  0  0  0  0  0  0  0
    0.7961  -19.1204    0.0000 P   0  0  0  0  0  0  0  0  0  0  0  0
    0.0461  -17.8213    0.0000 O   0  0  0  0  0  0  0  0  0  0  0  0
    1.9452  -20.0846    0.0000 O   0  0  0  0  0  0  0  0  0  0  0  0
    1.6847  -21.5618    0.0000 C   0  0  0  0  0  0  0  0  0  0  0  0
    2.8338  -22.5260    0.0000 C   0  0  0  0  0  0  0  0  0  0  0  0
    2.5733  -24.0032    0.0000 C   0  0  0  0  0  0  0  0  0  0  0  0
    1.1638  -24.5162    0.0000 C   0  0  0  0  0  0  0  0  0  0  0  0
    0.0147  -23.5520    0.0000 C   0  0  0  0  0  0  0  0  0  0  0  0
    0.2752  -22.0748    0.0000 C   0  0  0  0  0  0  0  0  0  0  0  0
   -0.8739  -21.1106    0.0000 C   0  0  0  0  0  0  0  0  0  0  0  0
   -2.2834  -21.6237    0.0000 C   0  0  0  0  0  0  0  0  0  0  0  0
   -3.4325  -20.6595    0.0000 C   0  0  0  0  0  0  0  0  0  0  0  0
   -3.1720  -19.1823    0.0000 C   0  0  0  0  0  0  0  0  0  0  0  0
   -1.7625  -18.6692    0.0000 C   0  0  0  0  0  0  0  0  0  0  0  0
   -0.6134  -19.6334    0.0000 C   0  0  0  0  0  0  0  0  0  0  0  0
    0.2752  -16.1660    0.0000 C   0  0  0  0  0  0  0  0  0  0  0  0
    0.0147  -14.6887    0.0000 C   0  0  0  0  0  0  0  0  0  0  0  0
    1.0882  -10.1341    0.0000 C   0  0  0  0  0  0  0  0  0  0  0  0
   -0.3890  -10.3946    0.0000 C   0  0  0  0  0  0  0  0  0  0  0  0
   -1.3532   -9.2455    0.0000 C   0  0  0  0  0  0  0  0  0  0  0  0
   -0.8402   -7.8360    0.0000 C   0  0  0  0  0  0  0  0  0  0  0  0
   -1.8044   -6.6869    0.0000 C   0  0  0  0  0  0  0  0  0  0  0  0
   -1.2913   -5.2774    0.0000 O   0  0  0  0  0  0  0  0  0  0  0  0
    0.6370   -7.5755    0.0000 C   0  0  0  0  0  0  0  0  0  0  0  0
    1.6012   -8.7246    0.0000 C   0  0  0  0  0  0  0  0  0  0  0  0
  1  2  2  0
  2  3  1  0
  3  4  1  0
  4  5  2  0
  5  6  1  0
  6  7  2  0
  7  8  1  0
  8  9  1  0
  8 10  1  0
 10 11  2  0
 10 12  1  0
 12 13  1  0
 13 14  2  0
 14 15  1  0
 15 16  2  0
 16 17  1  0
 17 18  2  0
 18 19  1  0
 19 20  2  0
 20 21  1  0
 21 22  2  0
 22 23  1  0
 23 24  2  0
  7 25  1  0
 25 26  2  0
  2 27  1  0
 27 28  1  0
 28 29  2  0
 29 30  1  0
 30 31  2  0
 31 32  1  0
 32 33  1  0
 32 34  1  0
 34 35  2  0
 34 36  1  0
 36 37  1  0
 37 38  2  0
 38 39  1  0
 39 40  2  0
 40 41  1  0
 41 42  2  0
 42 43  1  0
 43 44  2  0
 44 45  1  0
 45 46  2  0
 46 47  1  0
 47 48  2  0
 31 49  1  0
 49 50  2  0
  2 51  1  0
 51 52  2  0
 52 53  1  0
 53 54  2  0
 54 55  1  0
 55 56  1  0
 54 57  1  0
 57 58  2  0
 26  4  1  0
 50 28  1  0
 58 51  1  0
 24 10  1  0
 48 34  1  0
 18 13  1  0
 24 19  1  0
 42 37  1  0
 48 43  1  0
M  END
>  <Candidate_ID>  (204) 
CAND_R2_204

>  <Candidate_Name>  (204) 
DOPO-PPO-hydroxymethyl

>  <Parent_Seed_ID>  (204) 
TRAIN_080

>  <Parent_Name>  (204) 
DOPO-PPO

>  <Transformation_Code>  (204) 
hydroxymethyl

>  <Design_Family>  (204) 
P-only

>  <Preparation_Type>  (204) 
Additive

>  <Synthesis_Level>  (204) 
B

>  <Parent_Tanimoto_r3>  (204) 
0.7777777777777778

>  <Max_Train_Tanimoto_r3>  (204) 
0.7777777777777778

>  <Risk_Flags>  (204) 
none

$$$$
CAND_R2_205 | DOPO-PPO-carboxamide
     RDKit          2D

 59 67  0  0  0  0  0  0  0  0999 V2000
   -3.2816   -6.9474    0.0000 N   0  0  0  0  0  0  0  0  0  0  0  0
   -1.8044   -6.6869    0.0000 C   0  0  0  0  0  0  0  0  0  0  0  0
   -1.2913   -5.2774    0.0000 O   0  0  0  0  0  0  0  0  0  0  0  0
   -0.8402   -7.8360    0.0000 C   0  0  0  0  0  0  0  0  0  0  0  0
    0.6370   -7.5755    0.0000 C   0  0  0  0  0  0  0  0  0  0  0  0
    1.6012   -8.7246    0.0000 C   0  0  0  0  0  0  0  0  0  0  0  0
    1.0882  -10.1341    0.0000 C   0  0  0  0  0  0  0  0  0  0  0  0
    2.0524  -11.2832    0.0000 P   0  0  0  0  0  0  0  0  0  0  0  0
    3.0165  -12.4322    0.0000 O   0  0  0  0  0  0  0  0  0  0  0  0
    3.2014  -10.3190    0.0000 O   0  0  0  0  0  0  0  0  0  0  0  0
    4.6110  -10.8320    0.0000 C   0  0  0  0  0  0  0  0  0  0  0  0
    5.7600   -9.8678    0.0000 C   0  0  0  0  0  0  0  0  0  0  0  0
    7.1696  -10.3809    0.0000 C   0  0  0  0  0  0  0  0  0  0  0  0
    7.4300  -11.8581    0.0000 C   0  0  0  0  0  0  0  0  0  0  0  0
    8.8396  -12.3711    0.0000 C   0  0  0  0  0  0  0  0  0  0  0  0
    9.1001  -13.8483    0.0000 O   0  0  0  0  0  0  0  0  0  0  0  0
    9.9887  -11.4069    0.0000 P   0  0  0  0  0  0  0  0  0  0  0  0
    8.8396  -10.4427    0.0000 O   0  0  0  0  0  0  0  0  0  0  0  0
   10.7387  -12.7060    0.0000 O   0  0  0  0  0  0  0  0  0  0  0  0
   12.2387  -12.7060    0.0000 C   0  0  0  0  0  0  0  0  0  0  0  0
   12.9887  -14.0050    0.0000 C   0  0  0  0  0  0  0  0  0  0  0  0
   14.4887  -14.0050    0.0000 C   0  0  0  0  0  0  0  0  0  0  0  0
   15.2387  -12.7060    0.0000 C   0  0  0  0  0  0  0  0  0  0  0  0
   14.4887  -11.4069    0.0000 C   0  0  0  0  0  0  0  0  0  0  0  0
   12.9887  -11.4069    0.0000 C   0  0  0  0  0  0  0  0  0  0  0  0
   12.2387  -10.1079    0.0000 C   0  0  0  0  0  0  0  0  0  0  0  0
   12.9887   -8.8089    0.0000 C   0  0  0  0  0  0  0  0  0  0  0  0
   12.2387   -7.5098    0.0000 C   0  0  0  0  0  0  0  0  0  0  0  0
   10.7387   -7.5098    0.0000 C   0  0  0  0  0  0  0  0  0  0  0  0
    9.9887   -8.8089    0.0000 C   0  0  0  0  0  0  0  0  0  0  0  0
   10.7387  -10.1079    0.0000 C   0  0  0  0  0  0  0  0  0  0  0  0
    6.2810  -12.8223    0.0000 C   0  0  0  0  0  0  0  0  0  0  0  0
    4.8714  -12.3092    0.0000 C   0  0  0  0  0  0  0  0  0  0  0  0
    0.9033  -12.2474    0.0000 O   0  0  0  0  0  0  0  0  0  0  0  0
    1.1638  -13.7246    0.0000 C   0  0  0  0  0  0  0  0  0  0  0  0
    2.5733  -14.2376    0.0000 C   0  0  0  0  0  0  0  0  0  0  0  0
    2.8338  -15.7148    0.0000 C   0  0  0  0  0  0  0  0  0  0  0  0
    1.6847  -16.6790    0.0000 C   0  0  0  0  0  0  0  0  0  0  0  0
    1.9452  -18.1562    0.0000 C   0  0  0  0  0  0  0  0  0  0  0  0
    3.3547  -18.6692    0.0000 O   0  0  0  0  0  0  0  0  0  0  0  0
    0.7961  -19.1204    0.0000 P   0  0  0  0  0  0  0  0  0  0  0  0
    0.0461  -17.8213    0.0000 O   0  0  0  0  0  0  0  0  0  0  0  0
    1.9452  -20.0846    0.0000 O   0  0  0  0  0  0  0  0  0  0  0  0
    1.6847  -21.5618    0.0000 C   0  0  0  0  0  0  0  0  0  0  0  0
    2.8338  -22.5260    0.0000 C   0  0  0  0  0  0  0  0  0  0  0  0
    2.5733  -24.0032    0.0000 C   0  0  0  0  0  0  0  0  0  0  0  0
    1.1638  -24.5162    0.0000 C   0  0  0  0  0  0  0  0  0  0  0  0
    0.0147  -23.5520    0.0000 C   0  0  0  0  0  0  0  0  0  0  0  0
    0.2752  -22.0748    0.0000 C   0  0  0  0  0  0  0  0  0  0  0  0
   -0.8739  -21.1106    0.0000 C   0  0  0  0  0  0  0  0  0  0  0  0
   -2.2834  -21.6237    0.0000 C   0  0  0  0  0  0  0  0  0  0  0  0
   -3.4325  -20.6595    0.0000 C   0  0  0  0  0  0  0  0  0  0  0  0
   -3.1720  -19.1823    0.0000 C   0  0  0  0  0  0  0  0  0  0  0  0
   -1.7625  -18.6692    0.0000 C   0  0  0  0  0  0  0  0  0  0  0  0
   -0.6134  -19.6334    0.0000 C   0  0  0  0  0  0  0  0  0  0  0  0
    0.2752  -16.1660    0.0000 C   0  0  0  0  0  0  0  0  0  0  0  0
    0.0147  -14.6887    0.0000 C   0  0  0  0  0  0  0  0  0  0  0  0
   -0.3890  -10.3946    0.0000 C   0  0  0  0  0  0  0  0  0  0  0  0
   -1.3532   -9.2455    0.0000 C   0  0  0  0  0  0  0  0  0  0  0  0
  1  2  1  0
  2  3  2  0
  2  4  1  0
  4  5  2  0
  5  6  1  0
  6  7  2  0
  7  8  1  0
  8  9  2  0
  8 10  1  0
 10 11  1  0
 11 12  2  0
 12 13  1  0
 13 14  2  0
 14 15  1  0
 15 16  1  0
 15 17  1  0
 17 18  2  0
 17 19  1  0
 19 20  1  0
 20 21  2  0
 21 22  1  0
 22 23  2  0
 23 24  1  0
 24 25  2  0
 25 26  1  0
 26 27  2  0
 27 28  1  0
 28 29  2  0
 29 30  1  0
 30 31  2  0
 14 32  1  0
 32 33  2  0
  8 34  1  0
 34 35  1  0
 35 36  2  0
 36 37  1  0
 37 38  2  0
 38 39  1  0
 39 40  1  0
 39 41  1  0
 41 42  2  0
 41 43  1  0
 43 44  1  0
 44 45  2  0
 45 46  1  0
 46 47  2  0
 47 48  1  0
 48 49  2  0
 49 50  1  0
 50 51  2  0
 51 52  1  0
 52 53  2  0
 53 54  1  0
 54 55  2  0
 38 56  1  0
 56 57  2  0
  7 58  1  0
 58 59  2  0
 59  4  1  0
 33 11  1  0
 57 35  1  0
 31 17  1  0
 55 41  1  0
 25 20  1  0
 31 26  1  0
 49 44  1  0
 55 50  1  0
M  END
>  <Candidate_ID>  (205) 
CAND_R2_205

>  <Candidate_Name>  (205) 
DOPO-PPO-carboxamide

>  <Parent_Seed_ID>  (205) 
TRAIN_080

>  <Parent_Name>  (205) 
DOPO-PPO

>  <Transformation_Code>  (205) 
carboxamide

>  <Design_Family>  (205) 
P-N

>  <Preparation_Type>  (205) 
Additive

>  <Synthesis_Level>  (205) 
B

>  <Parent_Tanimoto_r3>  (205) 
0.7682926829268293

>  <Max_Train_Tanimoto_r3>  (205) 
0.7682926829268293

>  <Risk_Flags>  (205) 
none

$$$$
CAND_R2_206 | DOPO-PPO-boronic-acid
     RDKit          2D

 59 67  0  0  0  0  0  0  0  0999 V2000
    3.0165  -12.4322    0.0000 O   0  0  0  0  0  0  0  0  0  0  0  0
    2.0524  -11.2832    0.0000 P   0  0  0  0  0  0  0  0  0  0  0  0
    3.2014  -10.3190    0.0000 O   0  0  0  0  0  0  0  0  0  0  0  0
    4.6110  -10.8320    0.0000 C   0  0  0  0  0  0  0  0  0  0  0  0
    5.7600   -9.8678    0.0000 C   0  0  0  0  0  0  0  0  0  0  0  0
    7.1696  -10.3809    0.0000 C   0  0  0  0  0  0  0  0  0  0  0  0
    7.4300  -11.8581    0.0000 C   0  0  0  0  0  0  0  0  0  0  0  0
    8.8396  -12.3711    0.0000 C   0  0  0  0  0  0  0  0  0  0  0  0
    9.9887  -11.4069    0.0000 O   0  0  0  0  0  0  0  0  0  0  0  0
    9.1001  -13.8483    0.0000 P   0  0  0  0  0  0  0  0  0  0  0  0
    7.6001  -13.8483    0.0000 O   0  0  0  0  0  0  0  0  0  0  0  0
   10.5096  -13.3353    0.0000 O   0  0  0  0  0  0  0  0  0  0  0  0
   11.6587  -14.2995    0.0000 C   0  0  0  0  0  0  0  0  0  0  0  0
   13.0682  -13.7864    0.0000 C   0  0  0  0  0  0  0  0  0  0  0  0
   14.2173  -14.7506    0.0000 C   0  0  0  0  0  0  0  0  0  0  0  0
   13.9568  -16.2278    0.0000 C   0  0  0  0  0  0  0  0  0  0  0  0
   12.5473  -16.7409    0.0000 C   0  0  0  0  0  0  0  0  0  0  0  0
   11.3982  -15.7767    0.0000 C   0  0  0  0  0  0  0  0  0  0  0  0
    9.9887  -16.2897    0.0000 C   0  0  0  0  0  0  0  0  0  0  0  0
    9.7282  -17.7669    0.0000 C   0  0  0  0  0  0  0  0  0  0  0  0
    8.3186  -18.2800    0.0000 C   0  0  0  0  0  0  0  0  0  0  0  0
    7.1696  -17.3158    0.0000 C   0  0  0  0  0  0  0  0  0  0  0  0
    7.4300  -15.8386    0.0000 C   0  0  0  0  0  0  0  0  0  0  0  0
    8.8396  -15.3255    0.0000 C   0  0  0  0  0  0  0  0  0  0  0  0
    6.2810  -12.8223    0.0000 C   0  0  0  0  0  0  0  0  0  0  0  0
    4.8714  -12.3092    0.0000 C   0  0  0  0  0  0  0  0  0  0  0  0
    0.9033  -12.2474    0.0000 O   0  0  0  0  0  0  0  0  0  0  0  0
    1.1638  -13.7246    0.0000 C   0  0  0  0  0  0  0  0  0  0  0  0
    2.5733  -14.2376    0.0000 C   0  0  0  0  0  0  0  0  0  0  0  0
    2.8338  -15.7148    0.0000 C   0  0  0  0  0  0  0  0  0  0  0  0
    1.6847  -16.6790    0.0000 C   0  0  0  0  0  0  0  0  0  0  0  0
    1.9452  -18.1562    0.0000 C   0  0  0  0  0  0  0  0  0  0  0  0
    3.3547  -18.6692    0.0000 O   0  0  0  0  0  0  0  0  0  0  0  0
    0.7961  -19.1204    0.0000 P   0  0  0  0  0  0  0  0  0  0  0  0
    0.0461  -17.8213    0.0000 O   0  0  0  0  0  0  0  0  0  0  0  0
    1.9452  -20.0846    0.0000 O   0  0  0  0  0  0  0  0  0  0  0  0
    1.6847  -21.5618    0.0000 C   0  0  0  0  0  0  0  0  0  0  0  0
    2.8338  -22.5260    0.0000 C   0  0  0  0  0  0  0  0  0  0  0  0
    2.5733  -24.0032    0.0000 C   0  0  0  0  0  0  0  0  0  0  0  0
    1.1638  -24.5162    0.0000 C   0  0  0  0  0  0  0  0  0  0  0  0
    0.0147  -23.5520    0.0000 C   0  0  0  0  0  0  0  0  0  0  0  0
    0.2752  -22.0748    0.0000 C   0  0  0  0  0  0  0  0  0  0  0  0
   -0.8739  -21.1106    0.0000 C   0  0  0  0  0  0  0  0  0  0  0  0
   -2.2834  -21.6237    0.0000 C   0  0  0  0  0  0  0  0  0  0  0  0
   -3.4325  -20.6595    0.0000 C   0  0  0  0  0  0  0  0  0  0  0  0
   -3.1720  -19.1823    0.0000 C   0  0  0  0  0  0  0  0  0  0  0  0
   -1.7625  -18.6692    0.0000 C   0  0  0  0  0  0  0  0  0  0  0  0
   -0.6134  -19.6334    0.0000 C   0  0  0  0  0  0  0  0  0  0  0  0
    0.2752  -16.1660    0.0000 C   0  0  0  0  0  0  0  0  0  0  0  0
    0.0147  -14.6887    0.0000 C   0  0  0  0  0  0  0  0  0  0  0  0
    1.0882  -10.1341    0.0000 C   0  0  0  0  0  0  0  0  0  0  0  0
    1.6012   -8.7246    0.0000 C   0  0  0  0  0  0  0  0  0  0  0  0
    0.6370   -7.5755    0.0000 C   0  0  0  0  0  0  0  0  0  0  0  0
   -0.8402   -7.8360    0.0000 C   0  0  0  0  0  0  0  0  0  0  0  0
   -1.8044   -6.6869    0.0000 B   0  0  0  0  0  0  0  0  0  0  0  0
   -3.2816   -6.9474    0.0000 O   0  0  0  0  0  0  0  0  0  0  0  0
   -1.2913   -5.2774    0.0000 O   0  0  0  0  0  0  0  0  0  0  0  0
   -1.3532   -9.2455    0.0000 C   0  0  0  0  0  0  0  0  0  0  0  0
   -0.3890  -10.3946    0.0000 C   0  0  0  0  0  0  0  0  0  0  0  0
  1  2  2  0
  2  3  1  0
  3  4  1  0
  4  5  2  0
  5  6  1  0
  6  7  2  0
  7  8  1  0
  8  9  1  0
  8 10  1  0
 10 11  2  0
 10 12  1  0
 12 13  1  0
 13 14  2  0
 14 15  1  0
 15 16  2  0
 16 17  1  0
 17 18  2  0
 18 19  1  0
 19 20  2  0
 20 21  1  0
 21 22  2  0
 22 23  1  0
 23 24  2  0
  7 25  1  0
 25 26  2  0
  2 27  1  0
 27 28  1  0
 28 29  2  0
 29 30  1  0
 30 31  2  0
 31 32  1  0
 32 33  1  0
 32 34  1  0
 34 35  2  0
 34 36  1  0
 36 37  1  0
 37 38  2  0
 38 39  1  0
 39 40  2  0
 40 41  1  0
 41 42  2  0
 42 43  1  0
 43 44  2  0
 44 45  1  0
 45 46  2  0
 46 47  1  0
 47 48  2  0
 31 49  1  0
 49 50  2  0
  2 51  1  0
 51 52  2  0
 52 53  1  0
 53 54  2  0
 54 55  1  0
 55 56  1  0
 55 57  1  0
 54 58  1  0
 58 59  2  0
 26  4  1  0
 50 28  1  0
 59 51  1  0
 24 10  1  0
 48 34  1  0
 18 13  1  0
 24 19  1  0
 42 37  1  0
 48 43  1  0
M  END
>  <Candidate_ID>  (206) 
CAND_R2_206

>  <Candidate_Name>  (206) 
DOPO-PPO-boronic-acid

>  <Parent_Seed_ID>  (206) 
TRAIN_080

>  <Parent_Name>  (206) 
DOPO-PPO

>  <Transformation_Code>  (206) 
boronic_acid

>  <Design_Family>  (206) 
P-B

>  <Preparation_Type>  (206) 
Additive

>  <Synthesis_Level>  (206) 
B

>  <Parent_Tanimoto_r3>  (206) 
0.7777777777777778

>  <Max_Train_Tanimoto_r3>  (206) 
0.7777777777777778

>  <Risk_Flags>  (206) 
none

$$$$
CAND_R2_207 | DOPO-PPO-pinacol-boronate
     RDKit          2D

 65 74  0  0  0  0  0  0  0  0999 V2000
   -1.7901   -3.2546    0.0000 C   0  0  0  0  0  0  0  0  0  0  0  0
   -2.7136   -4.4366    0.0000 C   0  0  0  0  0  0  0  0  0  0  0  0
   -3.7926   -3.3946    0.0000 C   0  0  0  0  0  0  0  0  0  0  0  0
   -1.4415   -5.2315    0.0000 O   0  0  0  0  0  0  0  0  0  0  0  0
   -1.8044   -6.6869    0.0000 B   0  0  0  0  0  0  0  0  0  0  0  0
   -0.8402   -7.8360    0.0000 C   0  0  0  0  0  0  0  0  0  0  0  0
    0.6370   -7.5755    0.0000 C   0  0  0  0  0  0  0  0  0  0  0  0
    1.6012   -8.7246    0.0000 C   0  0  0  0  0  0  0  0  0  0  0  0
    1.0882  -10.1341    0.0000 C   0  0  0  0  0  0  0  0  0  0  0  0
    2.0524  -11.2832    0.0000 P   0  0  0  0  0  0  0  0  0  0  0  0
    3.0165  -12.4322    0.0000 O   0  0  0  0  0  0  0  0  0  0  0  0
    3.2014  -10.3190    0.0000 O   0  0  0  0  0  0  0  0  0  0  0  0
    4.6110  -10.8320    0.0000 C   0  0  0  0  0  0  0  0  0  0  0  0
    5.7600   -9.8678    0.0000 C   0  0  0  0  0  0  0  0  0  0  0  0
    7.1696  -10.3809    0.0000 C   0  0  0  0  0  0  0  0  0  0  0  0
    7.4300  -11.8581    0.0000 C   0  0  0  0  0  0  0  0  0  0  0  0
    8.8396  -12.3711    0.0000 C   0  0  0  0  0  0  0  0  0  0  0  0
    9.1001  -13.8483    0.0000 O   0  0  0  0  0  0  0  0  0  0  0  0
    9.9887  -11.4069    0.0000 P   0  0  0  0  0  0  0  0  0  0  0  0
    8.8396  -10.4427    0.0000 O   0  0  0  0  0  0  0  0  0  0  0  0
   10.7387  -12.7060    0.0000 O   0  0  0  0  0  0  0  0  0  0  0  0
   12.2387  -12.7060    0.0000 C   0  0  0  0  0  0  0  0  0  0  0  0
   12.9887  -14.0050    0.0000 C   0  0  0  0  0  0  0  0  0  0  0  0
   14.4887  -14.0050    0.0000 C   0  0  0  0  0  0  0  0  0  0  0  0
   15.2387  -12.7060    0.0000 C   0  0  0  0  0  0  0  0  0  0  0  0
   14.4887  -11.4069    0.0000 C   0  0  0  0  0  0  0  0  0  0  0  0
   12.9887  -11.4069    0.0000 C   0  0  0  0  0  0  0  0  0  0  0  0
   12.2387  -10.1079    0.0000 C   0  0  0  0  0  0  0  0  0  0  0  0
   12.9887   -8.8089    0.0000 C   0  0  0  0  0  0  0  0  0  0  0  0
   12.2387   -7.5098    0.0000 C   0  0  0  0  0  0  0  0  0  0  0  0
   10.7387   -7.5098    0.0000 C   0  0  0  0  0  0  0  0  0  0  0  0
    9.9887   -8.8089    0.0000 C   0  0  0  0  0  0  0  0  0  0  0  0
   10.7387  -10.1079    0.0000 C   0  0  0  0  0  0  0  0  0  0  0  0
    6.2810  -12.8223    0.0000 C   0  0  0  0  0  0  0  0  0  0  0  0
    4.8714  -12.3092    0.0000 C   0  0  0  0  0  0  0  0  0  0  0  0
    0.9033  -12.2474    0.0000 O   0  0  0  0  0  0  0  0  0  0  0  0
    1.1638  -13.7246    0.0000 C   0  0  0  0  0  0  0  0  0  0  0  0
    0.0147  -14.6887    0.0000 C   0  0  0  0  0  0  0  0  0  0  0  0
    0.2752  -16.1660    0.0000 C   0  0  0  0  0  0  0  0  0  0  0  0
    1.6847  -16.6790    0.0000 C   0  0  0  0  0  0  0  0  0  0  0  0
    1.9452  -18.1562    0.0000 C   0  0  0  0  0  0  0  0  0  0  0  0
    3.3547  -18.6692    0.0000 O   0  0  0  0  0  0  0  0  0  0  0  0
    0.7961  -19.1204    0.0000 P   0  0  0  0  0  0  0  0  0  0  0  0
    0.0461  -17.8213    0.0000 O   0  0  0  0  0  0  0  0  0  0  0  0
    1.9452  -20.0846    0.0000 O   0  0  0  0  0  0  0  0  0  0  0  0
    1.6847  -21.5618    0.0000 C   0  0  0  0  0  0  0  0  0  0  0  0
    2.8338  -22.5260    0.0000 C   0  0  0  0  0  0  0  0  0  0  0  0
    2.5733  -24.0032    0.0000 C   0  0  0  0  0  0  0  0  0  0  0  0
    1.1638  -24.5162    0.0000 C   0  0  0  0  0  0  0  0  0  0  0  0
    0.0147  -23.5520    0.0000 C   0  0  0  0  0  0  0  0  0  0  0  0
    0.2752  -22.0748    0.0000 C   0  0  0  0  0  0  0  0  0  0  0  0
   -0.8739  -21.1106    0.0000 C   0  0  0  0  0  0  0  0  0  0  0  0
   -2.2834  -21.6237    0.0000 C   0  0  0  0  0  0  0  0  0  0  0  0
   -3.4325  -20.6595    0.0000 C   0  0  0  0  0  0  0  0  0  0  0  0
   -3.1720  -19.1823    0.0000 C   0  0  0  0  0  0  0  0  0  0  0  0
   -1.7625  -18.6692    0.0000 C   0  0  0  0  0  0  0  0  0  0  0  0
   -0.6134  -19.6334    0.0000 C   0  0  0  0  0  0  0  0  0  0  0  0
    2.8338  -15.7148    0.0000 C   0  0  0  0  0  0  0  0  0  0  0  0
    2.5733  -14.2376    0.0000 C   0  0  0  0  0  0  0  0  0  0  0  0
   -0.3890  -10.3946    0.0000 C   0  0  0  0  0  0  0  0  0  0  0  0
   -1.3532   -9.2455    0.0000 C   0  0  0  0  0  0  0  0  0  0  0  0
   -3.3007   -6.7915    0.0000 O   0  0  0  0  0  0  0  0  0  0  0  0
   -3.8626   -5.4008    0.0000 C   0  0  0  0  0  0  0  0  0  0  0  0
   -4.7014   -4.1572    0.0000 C   0  0  0  0  0  0  0  0  0  0  0  0
   -5.1870   -6.1050    0.0000 C   0  0  0  0  0  0  0  0  0  0  0  0
  1  2  1  0
  2  3  1  0
  2  4  1  0
  4  5  1  0
  5  6  1  0
  6  7  2  0
  7  8  1  0
  8  9  2  0
  9 10  1  0
 10 11  2  0
 10 12  1  0
 12 13  1  0
 13 14  2  0
 14 15  1  0
 15 16  2  0
 16 17  1  0
 17 18  1  0
 17 19  1  0
 19 20  2  0
 19 21  1  0
 21 22  1  0
 22 23  2  0
 23 24  1  0
 24 25  2  0
 25 26  1  0
 26 27  2  0
 27 28  1  0
 28 29  2  0
 29 30  1  0
 30 31  2  0
 31 32  1  0
 32 33  2  0
 16 34  1  0
 34 35  2  0
 10 36  1  0
 36 37  1  0
 37 38  2  0
 38 39  1  0
 39 40  2  0
 40 41  1  0
 41 42  1  0
 41 43  1  0
 43 44  2  0
 43 45  1  0
 45 46  1  0
 46 47  2  0
 47 48  1  0
 48 49  2  0
 49 50  1  0
 50 51  2  0
 51 52  1  0
 52 53  2  0
 53 54  1  0
 54 55  2  0
 55 56  1  0
 56 57  2  0
 40 58  1  0
 58 59  2  0
  9 60  1  0
 60 61  2  0
  5 62  1  0
 62 63  1  0
 63 64  1  0
 63 65  1  0
 63  2  1  0
 61  6  1  0
 35 13  1  0
 59 37  1  0
 33 19  1  0
 57 43  1  0
 27 22  1  0
 33 28  1  0
 51 46  1  0
 57 52  1  0
M  END
>  <Candidate_ID>  (207) 
CAND_R2_207

>  <Candidate_Name>  (207) 
DOPO-PPO-pinacol-boronate

>  <Parent_Seed_ID>  (207) 
TRAIN_080

>  <Parent_Name>  (207) 
DOPO-PPO

>  <Transformation_Code>  (207) 
pinacol_boronate

>  <Design_Family>  (207) 
P-B

>  <Preparation_Type>  (207) 
Additive

>  <Synthesis_Level>  (207) 
B

>  <Parent_Tanimoto_r3>  (207) 
0.7

>  <Max_Train_Tanimoto_r3>  (207) 
0.7

>  <Risk_Flags>  (207) 
none

$$$$
CAND_R2_208 | DOPO-PPO-trimethoxysilyl
     RDKit          2D

 63 71  0  0  0  0  0  0  0  0999 V2000
   -4.2458   -5.7983    0.0000 C   0  0  0  0  0  0  0  0  0  0  0  0
   -2.7685   -5.5378    0.0000 O   0  0  0  0  0  0  0  0  0  0  0  0
   -1.8044   -6.6869    0.0000 Si  0  0  0  0  0  4  0  0  0  0  0  0
   -2.9534   -7.6511    0.0000 O   0  0  0  0  0  0  0  0  0  0  0  0
   -4.3630   -7.1381    0.0000 C   0  0  0  0  0  0  0  0  0  0  0  0
   -0.6553   -5.7227    0.0000 O   0  0  0  0  0  0  0  0  0  0  0  0
    0.7542   -6.2358    0.0000 C   0  0  0  0  0  0  0  0  0  0  0  0
   -0.8402   -7.8360    0.0000 C   0  0  0  0  0  0  0  0  0  0  0  0
    0.6370   -7.5755    0.0000 C   0  0  0  0  0  0  0  0  0  0  0  0
    1.6012   -8.7246    0.0000 C   0  0  0  0  0  0  0  0  0  0  0  0
    1.0882  -10.1341    0.0000 C   0  0  0  0  0  0  0  0  0  0  0  0
    2.0524  -11.2832    0.0000 P   0  0  0  0  0  0  0  0  0  0  0  0
    3.0165  -12.4322    0.0000 O   0  0  0  0  0  0  0  0  0  0  0  0
    3.2014  -10.3190    0.0000 O   0  0  0  0  0  0  0  0  0  0  0  0
    4.6110  -10.8320    0.0000 C   0  0  0  0  0  0  0  0  0  0  0  0
    5.7600   -9.8678    0.0000 C   0  0  0  0  0  0  0  0  0  0  0  0
    7.1696  -10.3809    0.0000 C   0  0  0  0  0  0  0  0  0  0  0  0
    7.4300  -11.8581    0.0000 C   0  0  0  0  0  0  0  0  0  0  0  0
    8.8396  -12.3711    0.0000 C   0  0  0  0  0  0  0  0  0  0  0  0
    9.1001  -13.8483    0.0000 O   0  0  0  0  0  0  0  0  0  0  0  0
    9.9887  -11.4069    0.0000 P   0  0  0  0  0  0  0  0  0  0  0  0
    8.8396  -10.4427    0.0000 O   0  0  0  0  0  0  0  0  0  0  0  0
   10.7387  -12.7060    0.0000 O   0  0  0  0  0  0  0  0  0  0  0  0
   12.2387  -12.7060    0.0000 C   0  0  0  0  0  0  0  0  0  0  0  0
   12.9887  -14.0050    0.0000 C   0  0  0  0  0  0  0  0  0  0  0  0
   14.4887  -14.0050    0.0000 C   0  0  0  0  0  0  0  0  0  0  0  0
   15.2387  -12.7060    0.0000 C   0  0  0  0  0  0  0  0  0  0  0  0
   14.4887  -11.4069    0.0000 C   0  0  0  0  0  0  0  0  0  0  0  0
   12.9887  -11.4069    0.0000 C   0  0  0  0  0  0  0  0  0  0  0  0
   12.2387  -10.1079    0.0000 C   0  0  0  0  0  0  0  0  0  0  0  0
   12.9887   -8.8089    0.0000 C   0  0  0  0  0  0  0  0  0  0  0  0
   12.2387   -7.5098    0.0000 C   0  0  0  0  0  0  0  0  0  0  0  0
   10.7387   -7.5098    0.0000 C   0  0  0  0  0  0  0  0  0  0  0  0
    9.9887   -8.8089    0.0000 C   0  0  0  0  0  0  0  0  0  0  0  0
   10.7387  -10.1079    0.0000 C   0  0  0  0  0  0  0  0  0  0  0  0
    6.2810  -12.8223    0.0000 C   0  0  0  0  0  0  0  0  0  0  0  0
    4.8714  -12.3092    0.0000 C   0  0  0  0  0  0  0  0  0  0  0  0
    0.9033  -12.2474    0.0000 O   0  0  0  0  0  0  0  0  0  0  0  0
    1.1638  -13.7246    0.0000 C   0  0  0  0  0  0  0  0  0  0  0  0
    2.5733  -14.2376    0.0000 C   0  0  0  0  0  0  0  0  0  0  0  0
    2.8338  -15.7148    0.0000 C   0  0  0  0  0  0  0  0  0  0  0  0
    1.6847  -16.6790    0.0000 C   0  0  0  0  0  0  0  0  0  0  0  0
    1.9452  -18.1562    0.0000 C   0  0  0  0  0  0  0  0  0  0  0  0
    3.3547  -18.6692    0.0000 O   0  0  0  0  0  0  0  0  0  0  0  0
    0.7961  -19.1204    0.0000 P   0  0  0  0  0  0  0  0  0  0  0  0
    0.0461  -17.8213    0.0000 O   0  0  0  0  0  0  0  0  0  0  0  0
    1.9452  -20.0846    0.0000 O   0  0  0  0  0  0  0  0  0  0  0  0
    1.6847  -21.5618    0.0000 C   0  0  0  0  0  0  0  0  0  0  0  0
    2.8338  -22.5260    0.0000 C   0  0  0  0  0  0  0  0  0  0  0  0
    2.5733  -24.0032    0.0000 C   0  0  0  0  0  0  0  0  0  0  0  0
    1.1638  -24.5162    0.0000 C   0  0  0  0  0  0  0  0  0  0  0  0
    0.0147  -23.5520    0.0000 C   0  0  0  0  0  0  0  0  0  0  0  0
    0.2752  -22.0748    0.0000 C   0  0  0  0  0  0  0  0  0  0  0  0
   -0.8739  -21.1106    0.0000 C   0  0  0  0  0  0  0  0  0  0  0  0
   -2.2834  -21.6237    0.0000 C   0  0  0  0  0  0  0  0  0  0  0  0
   -3.4325  -20.6595    0.0000 C   0  0  0  0  0  0  0  0  0  0  0  0
   -3.1720  -19.1823    0.0000 C   0  0  0  0  0  0  0  0  0  0  0  0
   -1.7625  -18.6692    0.0000 C   0  0  0  0  0  0  0  0  0  0  0  0
   -0.6134  -19.6334    0.0000 C   0  0  0  0  0  0  0  0  0  0  0  0
    0.2752  -16.1660    0.0000 C   0  0  0  0  0  0  0  0  0  0  0  0
    0.0147  -14.6887    0.0000 C   0  0  0  0  0  0  0  0  0  0  0  0
   -0.3890  -10.3946    0.0000 C   0  0  0  0  0  0  0  0  0  0  0  0
   -1.3532   -9.2455    0.0000 C   0  0  0  0  0  0  0  0  0  0  0  0
  1  2  1  0
  2  3  1  0
  3  4  1  0
  4  5  1  0
  3  6  1  0
  6  7  1  0
  3  8  1  0
  8  9  2  0
  9 10  1  0
 10 11  2  0
 11 12  1  0
 12 13  2  0
 12 14  1  0
 14 15  1  0
 15 16  2  0
 16 17  1  0
 17 18  2  0
 18 19  1  0
 19 20  1  0
 19 21  1  0
 21 22  2  0
 21 23  1  0
 23 24  1  0
 24 25  2  0
 25 26  1  0
 26 27  2  0
 27 28  1  0
 28 29  2  0
 29 30  1  0
 30 31  2  0
 31 32  1  0
 32 33  2  0
 33 34  1  0
 34 35  2  0
 18 36  1  0
 36 37  2  0
 12 38  1  0
 38 39  1  0
 39 40  2  0
 40 41  1  0
 41 42  2  0
 42 43  1  0
 43 44  1  0
 43 45  1  0
 45 46  2  0
 45 47  1  0
 47 48  1  0
 48 49  2  0
 49 50  1  0
 50 51  2  0
 51 52  1  0
 52 53  2  0
 53 54  1  0
 54 55  2  0
 55 56  1  0
 56 57  2  0
 57 58  1  0
 58 59  2  0
 42 60  1  0
 60 61  2  0
 11 62  1  0
 62 63  2  0
 63  8  1  0
 37 15  1  0
 61 39  1  0
 35 21  1  0
 59 45  1  0
 29 24  1  0
 35 30  1  0
 53 48  1  0
 59 54  1  0
M  END
>  <Candidate_ID>  (208) 
CAND_R2_208

>  <Candidate_Name>  (208) 
DOPO-PPO-trimethoxysilyl

>  <Parent_Seed_ID>  (208) 
TRAIN_080

>  <Parent_Name>  (208) 
DOPO-PPO

>  <Transformation_Code>  (208) 
trimethoxysilyl

>  <Design_Family>  (208) 
P-Si

>  <Preparation_Type>  (208) 
Additive + Secondary Crosslinking

>  <Synthesis_Level>  (208) 
B

>  <Parent_Tanimoto_r3>  (208) 
0.7411764705882353

>  <Max_Train_Tanimoto_r3>  (208) 
0.7411764705882353

>  <Risk_Flags>  (208) 
none

$$$$
CAND_R2_209 | DOPO-PPO-triethoxysilyl
     RDKit          2D

 66 74  0  0  0  0  0  0  0  0999 V2000
   -5.2099   -4.6492    0.0000 C   0  0  0  0  0  0  0  0  0  0  0  0
   -4.2458   -5.7983    0.0000 C   0  0  0  0  0  0  0  0  0  0  0  0
   -2.7685   -5.5378    0.0000 O   0  0  0  0  0  0  0  0  0  0  0  0
   -1.8044   -6.6869    0.0000 Si  0  0  0  0  0  4  0  0  0  0  0  0
   -2.9534   -7.6511    0.0000 O   0  0  0  0  0  0  0  0  0  0  0  0
   -4.3630   -7.1381    0.0000 C   0  0  0  0  0  0  0  0  0  0  0  0
   -5.5120   -8.1022    0.0000 C   0  0  0  0  0  0  0  0  0  0  0  0
   -0.6553   -5.7227    0.0000 O   0  0  0  0  0  0  0  0  0  0  0  0
    0.7542   -6.2358    0.0000 C   0  0  0  0  0  0  0  0  0  0  0  0
    1.9033   -5.2716    0.0000 C   0  0  0  0  0  0  0  0  0  0  0  0
   -0.8402   -7.8360    0.0000 C   0  0  0  0  0  0  0  0  0  0  0  0
    0.6370   -7.5755    0.0000 C   0  0  0  0  0  0  0  0  0  0  0  0
    1.6012   -8.7246    0.0000 C   0  0  0  0  0  0  0  0  0  0  0  0
    1.0882  -10.1341    0.0000 C   0  0  0  0  0  0  0  0  0  0  0  0
    2.0524  -11.2832    0.0000 P   0  0  0  0  0  0  0  0  0  0  0  0
    3.0165  -12.4322    0.0000 O   0  0  0  0  0  0  0  0  0  0  0  0
    3.2014  -10.3190    0.0000 O   0  0  0  0  0  0  0  0  0  0  0  0
    4.6110  -10.8320    0.0000 C   0  0  0  0  0  0  0  0  0  0  0  0
    5.7600   -9.8678    0.0000 C   0  0  0  0  0  0  0  0  0  0  0  0
    7.1696  -10.3809    0.0000 C   0  0  0  0  0  0  0  0  0  0  0  0
    7.4300  -11.8581    0.0000 C   0  0  0  0  0  0  0  0  0  0  0  0
    8.8396  -12.3711    0.0000 C   0  0  0  0  0  0  0  0  0  0  0  0
    9.1001  -13.8483    0.0000 O   0  0  0  0  0  0  0  0  0  0  0  0
    9.9887  -11.4069    0.0000 P   0  0  0  0  0  0  0  0  0  0  0  0
    8.8396  -10.4427    0.0000 O   0  0  0  0  0  0  0  0  0  0  0  0
   10.7387  -12.7060    0.0000 O   0  0  0  0  0  0  0  0  0  0  0  0
   12.2387  -12.7060    0.0000 C   0  0  0  0  0  0  0  0  0  0  0  0
   12.9887  -14.0050    0.0000 C   0  0  0  0  0  0  0  0  0  0  0  0
   14.4887  -14.0050    0.0000 C   0  0  0  0  0  0  0  0  0  0  0  0
   15.2387  -12.7060    0.0000 C   0  0  0  0  0  0  0  0  0  0  0  0
   14.4887  -11.4069    0.0000 C   0  0  0  0  0  0  0  0  0  0  0  0
   12.9887  -11.4069    0.0000 C   0  0  0  0  0  0  0  0  0  0  0  0
   12.2387  -10.1079    0.0000 C   0  0  0  0  0  0  0  0  0  0  0  0
   12.9887   -8.8089    0.0000 C   0  0  0  0  0  0  0  0  0  0  0  0
   12.2387   -7.5098    0.0000 C   0  0  0  0  0  0  0  0  0  0  0  0
   10.7387   -7.5098    0.0000 C   0  0  0  0  0  0  0  0  0  0  0  0
    9.9887   -8.8089    0.0000 C   0  0  0  0  0  0  0  0  0  0  0  0
   10.7387  -10.1079    0.0000 C   0  0  0  0  0  0  0  0  0  0  0  0
    6.2810  -12.8223    0.0000 C   0  0  0  0  0  0  0  0  0  0  0  0
    4.8714  -12.3092    0.0000 C   0  0  0  0  0  0  0  0  0  0  0  0
    0.9033  -12.2474    0.0000 O   0  0  0  0  0  0  0  0  0  0  0  0
    1.1638  -13.7246    0.0000 C   0  0  0  0  0  0  0  0  0  0  0  0
    2.5733  -14.2376    0.0000 C   0  0  0  0  0  0  0  0  0  0  0  0
    2.8338  -15.7148    0.0000 C   0  0  0  0  0  0  0  0  0  0  0  0
    1.6847  -16.6790    0.0000 C   0  0  0  0  0  0  0  0  0  0  0  0
    1.9452  -18.1562    0.0000 C   0  0  0  0  0  0  0  0  0  0  0  0
    3.3547  -18.6692    0.0000 O   0  0  0  0  0  0  0  0  0  0  0  0
    0.7961  -19.1204    0.0000 P   0  0  0  0  0  0  0  0  0  0  0  0
    0.0461  -17.8213    0.0000 O   0  0  0  0  0  0  0  0  0  0  0  0
    1.9452  -20.0846    0.0000 O   0  0  0  0  0  0  0  0  0  0  0  0
    1.6847  -21.5618    0.0000 C   0  0  0  0  0  0  0  0  0  0  0  0
    2.8338  -22.5260    0.0000 C   0  0  0  0  0  0  0  0  0  0  0  0
    2.5733  -24.0032    0.0000 C   0  0  0  0  0  0  0  0  0  0  0  0
    1.1638  -24.5162    0.0000 C   0  0  0  0  0  0  0  0  0  0  0  0
    0.0147  -23.5520    0.0000 C   0  0  0  0  0  0  0  0  0  0  0  0
    0.2752  -22.0748    0.0000 C   0  0  0  0  0  0  0  0  0  0  0  0
   -0.8739  -21.1106    0.0000 C   0  0  0  0  0  0  0  0  0  0  0  0
   -2.2834  -21.6237    0.0000 C   0  0  0  0  0  0  0  0  0  0  0  0
   -3.4325  -20.6595    0.0000 C   0  0  0  0  0  0  0  0  0  0  0  0
   -3.1720  -19.1823    0.0000 C   0  0  0  0  0  0  0  0  0  0  0  0
   -1.7625  -18.6692    0.0000 C   0  0  0  0  0  0  0  0  0  0  0  0
   -0.6134  -19.6334    0.0000 C   0  0  0  0  0  0  0  0  0  0  0  0
    0.2752  -16.1660    0.0000 C   0  0  0  0  0  0  0  0  0  0  0  0
    0.0147  -14.6887    0.0000 C   0  0  0  0  0  0  0  0  0  0  0  0
   -0.3890  -10.3946    0.0000 C   0  0  0  0  0  0  0  0  0  0  0  0
   -1.3532   -9.2455    0.0000 C   0  0  0  0  0  0  0  0  0  0  0  0
  1  2  1  0
  2  3  1  0
  3  4  1  0
  4  5  1  0
  5  6  1  0
  6  7  1  0
  4  8  1  0
  8  9  1  0
  9 10  1  0
  4 11  1  0
 11 12  2  0
 12 13  1  0
 13 14  2  0
 14 15  1  0
 15 16  2  0
 15 17  1  0
 17 18  1  0
 18 19  2  0
 19 20  1  0
 20 21  2  0
 21 22  1  0
 22 23  1  0
 22 24  1  0
 24 25  2  0
 24 26  1  0
 26 27  1  0
 27 28  2  0
 28 29  1  0
 29 30  2  0
 30 31  1  0
 31 32  2  0
 32 33  1  0
 33 34  2  0
 34 35  1  0
 35 36  2  0
 36 37  1  0
 37 38  2  0
 21 39  1  0
 39 40  2  0
 15 41  1  0
 41 42  1  0
 42 43  2  0
 43 44  1  0
 44 45  2  0
 45 46  1  0
 46 47  1  0
 46 48  1  0
 48 49  2  0
 48 50  1  0
 50 51  1  0
 51 52  2  0
 52 53  1  0
 53 54  2  0
 54 55  1  0
 55 56  2  0
 56 57  1  0
 57 58  2  0
 58 59  1  0
 59 60  2  0
 60 61  1  0
 61 62  2  0
 45 63  1  0
 63 64  2  0
 14 65  1  0
 65 66  2  0
 66 11  1  0
 40 18  1  0
 64 42  1  0
 38 24  1  0
 62 48  1  0
 32 27  1  0
 38 33  1  0
 56 51  1  0
 62 57  1  0
M  END
>  <Candidate_ID>  (209) 
CAND_R2_209

>  <Candidate_Name>  (209) 
DOPO-PPO-triethoxysilyl

>  <Parent_Seed_ID>  (209) 
TRAIN_080

>  <Parent_Name>  (209) 
DOPO-PPO

>  <Transformation_Code>  (209) 
triethoxysilyl

>  <Design_Family>  (209) 
P-Si

>  <Preparation_Type>  (209) 
Additive + Secondary Crosslinking

>  <Synthesis_Level>  (209) 
B

>  <Parent_Tanimoto_r3>  (209) 
0.7078651685393258

>  <Max_Train_Tanimoto_r3>  (209) 
0.7078651685393258

>  <Risk_Flags>  (209) 
none

$$$$
CAND_R2_210 | DOPO-PPO-disiloxane
     RDKit          2D

 64 72  0  0  0  0  0  0  0  0999 V2000
   -3.6651   -3.6153    0.0000 C   0  0  0  0  0  0  0  0  0  0  0  0
   -2.2555   -4.1283    0.0000 Si  0  0  0  0  0  4  0  0  0  0  0  0
   -0.8460   -4.6413    0.0000 C   0  0  0  0  0  0  0  0  0  0  0  0
   -1.7425   -2.7188    0.0000 C   0  0  0  0  0  0  0  0  0  0  0  0
   -2.7685   -5.5378    0.0000 O   0  0  0  0  0  0  0  0  0  0  0  0
   -1.8044   -6.6869    0.0000 Si  0  0  0  0  0  4  0  0  0  0  0  0
   -2.9534   -7.6511    0.0000 C   0  0  0  0  0  0  0  0  0  0  0  0
   -0.6553   -5.7227    0.0000 C   0  0  0  0  0  0  0  0  0  0  0  0
   -0.8402   -7.8360    0.0000 C   0  0  0  0  0  0  0  0  0  0  0  0
   -1.3532   -9.2455    0.0000 C   0  0  0  0  0  0  0  0  0  0  0  0
   -0.3890  -10.3946    0.0000 C   0  0  0  0  0  0  0  0  0  0  0  0
    1.0882  -10.1341    0.0000 C   0  0  0  0  0  0  0  0  0  0  0  0
    2.0524  -11.2832    0.0000 P   0  0  0  0  0  0  0  0  0  0  0  0
    3.0165  -12.4322    0.0000 O   0  0  0  0  0  0  0  0  0  0  0  0
    3.2014  -10.3190    0.0000 O   0  0  0  0  0  0  0  0  0  0  0  0
    4.6110  -10.8320    0.0000 C   0  0  0  0  0  0  0  0  0  0  0  0
    5.7600   -9.8678    0.0000 C   0  0  0  0  0  0  0  0  0  0  0  0
    7.1696  -10.3809    0.0000 C   0  0  0  0  0  0  0  0  0  0  0  0
    7.4300  -11.8581    0.0000 C   0  0  0  0  0  0  0  0  0  0  0  0
    8.8396  -12.3711    0.0000 C   0  0  0  0  0  0  0  0  0  0  0  0
    9.1001  -13.8483    0.0000 O   0  0  0  0  0  0  0  0  0  0  0  0
    9.9887  -11.4069    0.0000 P   0  0  0  0  0  0  0  0  0  0  0  0
    8.8396  -10.4427    0.0000 O   0  0  0  0  0  0  0  0  0  0  0  0
   10.7387  -12.7060    0.0000 O   0  0  0  0  0  0  0  0  0  0  0  0
   12.2387  -12.7060    0.0000 C   0  0  0  0  0  0  0  0  0  0  0  0
   12.9887  -14.0050    0.0000 C   0  0  0  0  0  0  0  0  0  0  0  0
   14.4887  -14.0050    0.0000 C   0  0  0  0  0  0  0  0  0  0  0  0
   15.2387  -12.7060    0.0000 C   0  0  0  0  0  0  0  0  0  0  0  0
   14.4887  -11.4069    0.0000 C   0  0  0  0  0  0  0  0  0  0  0  0
   12.9887  -11.4069    0.0000 C   0  0  0  0  0  0  0  0  0  0  0  0
   12.2387  -10.1079    0.0000 C   0  0  0  0  0  0  0  0  0  0  0  0
   12.9887   -8.8089    0.0000 C   0  0  0  0  0  0  0  0  0  0  0  0
   12.2387   -7.5098    0.0000 C   0  0  0  0  0  0  0  0  0  0  0  0
   10.7387   -7.5098    0.0000 C   0  0  0  0  0  0  0  0  0  0  0  0
    9.9887   -8.8089    0.0000 C   0  0  0  0  0  0  0  0  0  0  0  0
   10.7387  -10.1079    0.0000 C   0  0  0  0  0  0  0  0  0  0  0  0
    6.2810  -12.8223    0.0000 C   0  0  0  0  0  0  0  0  0  0  0  0
    4.8714  -12.3092    0.0000 C   0  0  0  0  0  0  0  0  0  0  0  0
    0.9033  -12.2474    0.0000 O   0  0  0  0  0  0  0  0  0  0  0  0
    1.1638  -13.7246    0.0000 C   0  0  0  0  0  0  0  0  0  0  0  0
    2.5733  -14.2376    0.0000 C   0  0  0  0  0  0  0  0  0  0  0  0
    2.8338  -15.7148    0.0000 C   0  0  0  0  0  0  0  0  0  0  0  0
    1.6847  -16.6790    0.0000 C   0  0  0  0  0  0  0  0  0  0  0  0
    1.9452  -18.1562    0.0000 C   0  0  0  0  0  0  0  0  0  0  0  0
    3.3547  -18.6692    0.0000 O   0  0  0  0  0  0  0  0  0  0  0  0
    0.7961  -19.1204    0.0000 P   0  0  0  0  0  0  0  0  0  0  0  0
    0.0461  -17.8213    0.0000 O   0  0  0  0  0  0  0  0  0  0  0  0
    1.9452  -20.0846    0.0000 O   0  0  0  0  0  0  0  0  0  0  0  0
    1.6847  -21.5618    0.0000 C   0  0  0  0  0  0  0  0  0  0  0  0
    2.8338  -22.5260    0.0000 C   0  0  0  0  0  0  0  0  0  0  0  0
    2.5733  -24.0032    0.0000 C   0  0  0  0  0  0  0  0  0  0  0  0
    1.1638  -24.5162    0.0000 C   0  0  0  0  0  0  0  0  0  0  0  0
    0.0147  -23.5520    0.0000 C   0  0  0  0  0  0  0  0  0  0  0  0
    0.2752  -22.0748    0.0000 C   0  0  0  0  0  0  0  0  0  0  0  0
   -0.8739  -21.1106    0.0000 C   0  0  0  0  0  0  0  0  0  0  0  0
   -2.2834  -21.6237    0.0000 C   0  0  0  0  0  0  0  0  0  0  0  0
   -3.4325  -20.6595    0.0000 C   0  0  0  0  0  0  0  0  0  0  0  0
   -3.1720  -19.1823    0.0000 C   0  0  0  0  0  0  0  0  0  0  0  0
   -1.7625  -18.6692    0.0000 C   0  0  0  0  0  0  0  0  0  0  0  0
   -0.6134  -19.6334    0.0000 C   0  0  0  0  0  0  0  0  0  0  0  0
    0.2752  -16.1660    0.0000 C   0  0  0  0  0  0  0  0  0  0  0  0
    0.0147  -14.6887    0.0000 C   0  0  0  0  0  0  0  0  0  0  0  0
    1.6012   -8.7246    0.0000 C   0  0  0  0  0  0  0  0  0  0  0  0
    0.6370   -7.5755    0.0000 C   0  0  0  0  0  0  0  0  0  0  0  0
  1  2  1  0
  2  3  1  0
  2  4  1  0
  2  5  1  0
  5  6  1  0
  6  7  1  0
  6  8  1  0
  6  9  1  0
  9 10  2  0
 10 11  1  0
 11 12  2  0
 12 13  1  0
 13 14  2  0
 13 15  1  0
 15 16  1  0
 16 17  2  0
 17 18  1  0
 18 19  2  0
 19 20  1  0
 20 21  1  0
 20 22  1  0
 22 23  2  0
 22 24  1  0
 24 25  1  0
 25 26  2  0
 26 27  1  0
 27 28  2  0
 28 29  1  0
 29 30  2  0
 30 31  1  0
 31 32  2  0
 32 33  1  0
 33 34  2  0
 34 35  1  0
 35 36  2  0
 19 37  1  0
 37 38  2  0
 13 39  1  0
 39 40  1  0
 40 41  2  0
 41 42  1  0
 42 43  2  0
 43 44  1  0
 44 45  1  0
 44 46  1  0
 46 47  2  0
 46 48  1  0
 48 49  1  0
 49 50  2  0
 50 51  1  0
 51 52  2  0
 52 53  1  0
 53 54  2  0
 54 55  1  0
 55 56  2  0
 56 57  1  0
 57 58  2  0
 58 59  1  0
 59 60  2  0
 43 61  1  0
 61 62  2  0
 12 63  1  0
 63 64  2  0
 64  9  1  0
 38 16  1  0
 62 40  1  0
 36 22  1  0
 60 46  1  0
 30 25  1  0
 36 31  1  0
 54 49  1  0
 60 55  1  0
M  END
>  <Candidate_ID>  (210) 
CAND_R2_210

>  <Candidate_Name>  (210) 
DOPO-PPO-disiloxane

>  <Parent_Seed_ID>  (210) 
TRAIN_080

>  <Parent_Name>  (210) 
DOPO-PPO

>  <Transformation_Code>  (210) 
disiloxane

>  <Design_Family>  (210) 
P-Si

>  <Preparation_Type>  (210) 
Additive

>  <Synthesis_Level>  (210) 
B

>  <Parent_Tanimoto_r3>  (210) 
0.7241379310344828

>  <Max_Train_Tanimoto_r3>  (210) 
0.7241379310344828

>  <Risk_Flags>  (210) 
none

$$$$
CAND_R2_211 | DOPO-PPO-glycidyloxy
     RDKit          2D

 61 70  0  0  0  0  0  0  0  0999 V2000
    3.0165  -12.4322    0.0000 O   0  0  0  0  0  0  0  0  0  0  0  0
    2.0524  -11.2832    0.0000 P   0  0  0  0  0  0  0  0  0  0  0  0
    3.2014  -10.3190    0.0000 O   0  0  0  0  0  0  0  0  0  0  0  0
    4.6110  -10.8320    0.0000 C   0  0  0  0  0  0  0  0  0  0  0  0
    5.7600   -9.8678    0.0000 C   0  0  0  0  0  0  0  0  0  0  0  0
    7.1696  -10.3809    0.0000 C   0  0  0  0  0  0  0  0  0  0  0  0
    7.4300  -11.8581    0.0000 C   0  0  0  0  0  0  0  0  0  0  0  0
    8.8396  -12.3711    0.0000 C   0  0  0  0  0  0  0  0  0  0  0  0
    9.9887  -11.4069    0.0000 O   0  0  0  0  0  0  0  0  0  0  0  0
    9.1001  -13.8483    0.0000 P   0  0  0  0  0  0  0  0  0  0  0  0
    7.6001  -13.8483    0.0000 O   0  0  0  0  0  0  0  0  0  0  0  0
   10.5096  -13.3353    0.0000 O   0  0  0  0  0  0  0  0  0  0  0  0
   11.6587  -14.2995    0.0000 C   0  0  0  0  0  0  0  0  0  0  0  0
   13.0682  -13.7864    0.0000 C   0  0  0  0  0  0  0  0  0  0  0  0
   14.2173  -14.7506    0.0000 C   0  0  0  0  0  0  0  0  0  0  0  0
   13.9568  -16.2278    0.0000 C   0  0  0  0  0  0  0  0  0  0  0  0
   12.5473  -16.7409    0.0000 C   0  0  0  0  0  0  0  0  0  0  0  0
   11.3982  -15.7767    0.0000 C   0  0  0  0  0  0  0  0  0  0  0  0
    9.9887  -16.2897    0.0000 C   0  0  0  0  0  0  0  0  0  0  0  0
    9.7282  -17.7669    0.0000 C   0  0  0  0  0  0  0  0  0  0  0  0
    8.3186  -18.2800    0.0000 C   0  0  0  0  0  0  0  0  0  0  0  0
    7.1696  -17.3158    0.0000 C   0  0  0  0  0  0  0  0  0  0  0  0
    7.4300  -15.8386    0.0000 C   0  0  0  0  0  0  0  0  0  0  0  0
    8.8396  -15.3255    0.0000 C   0  0  0  0  0  0  0  0  0  0  0  0
    6.2810  -12.8223    0.0000 C   0  0  0  0  0  0  0  0  0  0  0  0
    4.8714  -12.3092    0.0000 C   0  0  0  0  0  0  0  0  0  0  0  0
    0.9033  -12.2474    0.0000 O   0  0  0  0  0  0  0  0  0  0  0  0
    1.1638  -13.7246    0.0000 C   0  0  0  0  0  0  0  0  0  0  0  0
    2.5733  -14.2376    0.0000 C   0  0  0  0  0  0  0  0  0  0  0  0
    2.8338  -15.7148    0.0000 C   0  0  0  0  0  0  0  0  0  0  0  0
    1.6847  -16.6790    0.0000 C   0  0  0  0  0  0  0  0  0  0  0  0
    1.9452  -18.1562    0.0000 C   0  0  0  0  0  0  0  0  0  0  0  0
    3.3547  -18.6692    0.0000 O   0  0  0  0  0  0  0  0  0  0  0  0
    0.7961  -19.1204    0.0000 P   0  0  0  0  0  0  0  0  0  0  0  0
    0.0461  -17.8213    0.0000 O   0  0  0  0  0  0  0  0  0  0  0  0
    1.9452  -20.0846    0.0000 O   0  0  0  0  0  0  0  0  0  0  0  0
    1.6847  -21.5618    0.0000 C   0  0  0  0  0  0  0  0  0  0  0  0
    2.8338  -22.5260    0.0000 C   0  0  0  0  0  0  0  0  0  0  0  0
    2.5733  -24.0032    0.0000 C   0  0  0  0  0  0  0  0  0  0  0  0
    1.1638  -24.5162    0.0000 C   0  0  0  0  0  0  0  0  0  0  0  0
    0.0147  -23.5520    0.0000 C   0  0  0  0  0  0  0  0  0  0  0  0
    0.2752  -22.0748    0.0000 C   0  0  0  0  0  0  0  0  0  0  0  0
   -0.8739  -21.1106    0.0000 C   0  0  0  0  0  0  0  0  0  0  0  0
   -2.2834  -21.6237    0.0000 C   0  0  0  0  0  0  0  0  0  0  0  0
   -3.4325  -20.6595    0.0000 C   0  0  0  0  0  0  0  0  0  0  0  0
   -3.1720  -19.1823    0.0000 C   0  0  0  0  0  0  0  0  0  0  0  0
   -1.7625  -18.6692    0.0000 C   0  0  0  0  0  0  0  0  0  0  0  0
   -0.6134  -19.6334    0.0000 C   0  0  0  0  0  0  0  0  0  0  0  0
    0.2752  -16.1660    0.0000 C   0  0  0  0  0  0  0  0  0  0  0  0
    0.0147  -14.6887    0.0000 C   0  0  0  0  0  0  0  0  0  0  0  0
    1.0882  -10.1341    0.0000 C   0  0  0  0  0  0  0  0  0  0  0  0
   -0.3890  -10.3946    0.0000 C   0  0  0  0  0  0  0  0  0  0  0  0
   -1.3532   -9.2455    0.0000 C   0  0  0  0  0  0  0  0  0  0  0  0
   -0.8402   -7.8360    0.0000 C   0  0  0  0  0  0  0  0  0  0  0  0
   -1.8044   -6.6869    0.0000 O   0  0  0  0  0  0  0  0  0  0  0  0
   -1.2913   -5.2774    0.0000 C   0  0  0  0  0  0  0  0  0  0  0  0
   -2.2555   -4.1283    0.0000 C   0  0  0  0  0  0  0  0  0  0  0  0
   -2.5160   -2.6511    0.0000 C   0  0  0  0  0  0  0  0  0  0  0  0
   -3.6651   -3.6153    0.0000 O   0  0  0  0  0  0  0  0  0  0  0  0
    0.6370   -7.5755    0.0000 C   0  0  0  0  0  0  0  0  0  0  0  0
    1.6012   -8.7246    0.0000 C   0  0  0  0  0  0  0  0  0  0  0  0
  1  2  2  0
  2  3  1  0
  3  4  1  0
  4  5  2  0
  5  6  1  0
  6  7  2  0
  7  8  1  0
  8  9  1  0
  8 10  1  0
 10 11  2  0
 10 12  1  0
 12 13  1  0
 13 14  2  0
 14 15  1  0
 15 16  2  0
 16 17  1  0
 17 18  2  0
 18 19  1  0
 19 20  2  0
 20 21  1  0
 21 22  2  0
 22 23  1  0
 23 24  2  0
  7 25  1  0
 25 26  2  0
  2 27  1  0
 27 28  1  0
 28 29  2  0
 29 30  1  0
 30 31  2  0
 31 32  1  0
 32 33  1  0
 32 34  1  0
 34 35  2  0
 34 36  1  0
 36 37  1  0
 37 38  2  0
 38 39  1  0
 39 40  2  0
 40 41  1  0
 41 42  2  0
 42 43  1  0
 43 44  2  0
 44 45  1  0
 45 46  2  0
 46 47  1  0
 47 48  2  0
 31 49  1  0
 49 50  2  0
  2 51  1  0
 51 52  2  0
 52 53  1  0
 53 54  2  0
 54 55  1  0
 55 56  1  0
 56 57  1  0
 57 58  1  0
 58 59  1  0
 54 60  1  0
 60 61  2  0
 26  4  1  0
 50 28  1  0
 61 51  1  0
 24 10  1  0
 48 34  1  0
 59 57  1  0
 18 13  1  0
 24 19  1  0
 42 37  1  0
 48 43  1  0
M  END
>  <Candidate_ID>  (211) 
CAND_R2_211

>  <Candidate_Name>  (211) 
DOPO-PPO-glycidyloxy

>  <Parent_Seed_ID>  (211) 
TRAIN_080

>  <Parent_Name>  (211) 
DOPO-PPO

>  <Transformation_Code>  (211) 
glycidyloxy

>  <Design_Family>  (211) 
P-only

>  <Preparation_Type>  (211) 
Co-curing

>  <Synthesis_Level>  (211) 
B

>  <Parent_Tanimoto_r3>  (211) 
0.7159090909090909

>  <Max_Train_Tanimoto_r3>  (211) 
0.7159090909090909

>  <Risk_Flags>  (211) 
none

$$$$
CAND_R2_212 | DOPO-PPO-diaminotriazine
     RDKit          2D

 64 73  0  0  0  0  0  0  0  0999 V2000
   -1.7425   -2.7188    0.0000 N   0  0  0  0  0  0  0  0  0  0  0  0
   -2.2555   -4.1283    0.0000 C   0  0  0  0  0  0  0  0  0  0  0  0
   -3.7327   -4.3888    0.0000 N   0  0  0  0  0  0  0  0  0  0  0  0
   -4.2458   -5.7983    0.0000 C   0  0  0  0  0  0  0  0  0  0  0  0
   -5.7230   -6.0588    0.0000 N   0  0  0  0  0  0  0  0  0  0  0  0
   -3.2816   -6.9474    0.0000 N   0  0  0  0  0  0  0  0  0  0  0  0
   -1.8044   -6.6869    0.0000 C   0  0  0  0  0  0  0  0  0  0  0  0
   -0.8402   -7.8360    0.0000 C   0  0  0  0  0  0  0  0  0  0  0  0
    0.6370   -7.5755    0.0000 C   0  0  0  0  0  0  0  0  0  0  0  0
    1.6012   -8.7246    0.0000 C   0  0  0  0  0  0  0  0  0  0  0  0
    1.0882  -10.1341    0.0000 C   0  0  0  0  0  0  0  0  0  0  0  0
    2.0524  -11.2832    0.0000 P   0  0  0  0  0  0  0  0  0  0  0  0
    3.0165  -12.4322    0.0000 O   0  0  0  0  0  0  0  0  0  0  0  0
    3.2014  -10.3190    0.0000 O   0  0  0  0  0  0  0  0  0  0  0  0
    4.6110  -10.8320    0.0000 C   0  0  0  0  0  0  0  0  0  0  0  0
    5.7600   -9.8678    0.0000 C   0  0  0  0  0  0  0  0  0  0  0  0
    7.1696  -10.3809    0.0000 C   0  0  0  0  0  0  0  0  0  0  0  0
    7.4300  -11.8581    0.0000 C   0  0  0  0  0  0  0  0  0  0  0  0
    8.8396  -12.3711    0.0000 C   0  0  0  0  0  0  0  0  0  0  0  0
    9.1001  -13.8483    0.0000 O   0  0  0  0  0  0  0  0  0  0  0  0
    9.9887  -11.4069    0.0000 P   0  0  0  0  0  0  0  0  0  0  0  0
    8.8396  -10.4427    0.0000 O   0  0  0  0  0  0  0  0  0  0  0  0
   10.7387  -12.7060    0.0000 O   0  0  0  0  0  0  0  0  0  0  0  0
   12.2387  -12.7060    0.0000 C   0  0  0  0  0  0  0  0  0  0  0  0
   12.9887  -14.0050    0.0000 C   0  0  0  0  0  0  0  0  0  0  0  0
   14.4887  -14.0050    0.0000 C   0  0  0  0  0  0  0  0  0  0  0  0
   15.2387  -12.7060    0.0000 C   0  0  0  0  0  0  0  0  0  0  0  0
   14.4887  -11.4069    0.0000 C   0  0  0  0  0  0  0  0  0  0  0  0
   12.9887  -11.4069    0.0000 C   0  0  0  0  0  0  0  0  0  0  0  0
   12.2387  -10.1079    0.0000 C   0  0  0  0  0  0  0  0  0  0  0  0
   12.9887   -8.8089    0.0000 C   0  0  0  0  0  0  0  0  0  0  0  0
   12.2387   -7.5098    0.0000 C   0  0  0  0  0  0  0  0  0  0  0  0
   10.7387   -7.5098    0.0000 C   0  0  0  0  0  0  0  0  0  0  0  0
    9.9887   -8.8089    0.0000 C   0  0  0  0  0  0  0  0  0  0  0  0
   10.7387  -10.1079    0.0000 C   0  0  0  0  0  0  0  0  0  0  0  0
    6.2810  -12.8223    0.0000 C   0  0  0  0  0  0  0  0  0  0  0  0
    4.8714  -12.3092    0.0000 C   0  0  0  0  0  0  0  0  0  0  0  0
    0.9033  -12.2474    0.0000 O   0  0  0  0  0  0  0  0  0  0  0  0
    1.1638  -13.7246    0.0000 C   0  0  0  0  0  0  0  0  0  0  0  0
    0.0147  -14.6887    0.0000 C   0  0  0  0  0  0  0  0  0  0  0  0
    0.2752  -16.1660    0.0000 C   0  0  0  0  0  0  0  0  0  0  0  0
    1.6847  -16.6790    0.0000 C   0  0  0  0  0  0  0  0  0  0  0  0
    1.9452  -18.1562    0.0000 C   0  0  0  0  0  0  0  0  0  0  0  0
    3.3547  -18.6692    0.0000 O   0  0  0  0  0  0  0  0  0  0  0  0
    0.7961  -19.1204    0.0000 P   0  0  0  0  0  0  0  0  0  0  0  0
    0.0461  -17.8213    0.0000 O   0  0  0  0  0  0  0  0  0  0  0  0
    1.9452  -20.0846    0.0000 O   0  0  0  0  0  0  0  0  0  0  0  0
    1.6847  -21.5618    0.0000 C   0  0  0  0  0  0  0  0  0  0  0  0
    2.8338  -22.5260    0.0000 C   0  0  0  0  0  0  0  0  0  0  0  0
    2.5733  -24.0032    0.0000 C   0  0  0  0  0  0  0  0  0  0  0  0
    1.1638  -24.5162    0.0000 C   0  0  0  0  0  0  0  0  0  0  0  0
    0.0147  -23.5520    0.0000 C   0  0  0  0  0  0  0  0  0  0  0  0
    0.2752  -22.0748    0.0000 C   0  0  0  0  0  0  0  0  0  0  0  0
   -0.8739  -21.1106    0.0000 C   0  0  0  0  0  0  0  0  0  0  0  0
   -2.2834  -21.6237    0.0000 C   0  0  0  0  0  0  0  0  0  0  0  0
   -3.4325  -20.6595    0.0000 C   0  0  0  0  0  0  0  0  0  0  0  0
   -3.1720  -19.1823    0.0000 C   0  0  0  0  0  0  0  0  0  0  0  0
   -1.7625  -18.6692    0.0000 C   0  0  0  0  0  0  0  0  0  0  0  0
   -0.6134  -19.6334    0.0000 C   0  0  0  0  0  0  0  0  0  0  0  0
    2.8338  -15.7148    0.0000 C   0  0  0  0  0  0  0  0  0  0  0  0
    2.5733  -14.2376    0.0000 C   0  0  0  0  0  0  0  0  0  0  0  0
   -0.3890  -10.3946    0.0000 C   0  0  0  0  0  0  0  0  0  0  0  0
   -1.3532   -9.2455    0.0000 C   0  0  0  0  0  0  0  0  0  0  0  0
   -1.2913   -5.2774    0.0000 N   0  0  0  0  0  0  0  0  0  0  0  0
  1  2  1  0
  2  3  2  0
  3  4  1  0
  4  5  1  0
  4  6  2  0
  6  7  1  0
  7  8  1  0
  8  9  2  0
  9 10  1  0
 10 11  2  0
 11 12  1  0
 12 13  2  0
 12 14  1  0
 14 15  1  0
 15 16  2  0
 16 17  1  0
 17 18  2  0
 18 19  1  0
 19 20  1  0
 19 21  1  0
 21 22  2  0
 21 23  1  0
 23 24  1  0
 24 25  2  0
 25 26  1  0
 26 27  2  0
 27 28  1  0
 28 29  2  0
 29 30  1  0
 30 31  2  0
 31 32  1  0
 32 33  2  0
 33 34  1  0
 34 35  2  0
 18 36  1  0
 36 37  2  0
 12 38  1  0
 38 39  1  0
 39 40  2  0
 40 41  1  0
 41 42  2  0
 42 43  1  0
 43 44  1  0
 43 45  1  0
 45 46  2  0
 45 47  1  0
 47 48  1  0
 48 49  2  0
 49 50  1  0
 50 51  2  0
 51 52  1  0
 52 53  2  0
 53 54  1  0
 54 55  2  0
 55 56  1  0
 56 57  2  0
 57 58  1  0
 58 59  2  0
 42 60  1  0
 60 61  2  0
 11 62  1  0
 62 63  2  0
  7 64  2  0
 64  2  1  0
 63  8  1  0
 37 15  1  0
 61 39  1  0
 35 21  1  0
 59 45  1  0
 29 24  1  0
 35 30  1  0
 53 48  1  0
 59 54  1  0
M  END
>  <Candidate_ID>  (212) 
CAND_R2_212

>  <Candidate_Name>  (212) 
DOPO-PPO-diaminotriazine

>  <Parent_Seed_ID>  (212) 
TRAIN_080

>  <Parent_Name>  (212) 
DOPO-PPO

>  <Transformation_Code>  (212) 
diaminotriazine

>  <Design_Family>  (212) 
P-N

>  <Preparation_Type>  (212) 
Co-curing

>  <Synthesis_Level>  (212) 
B

>  <Parent_Tanimoto_r3>  (212) 
0.6923076923076923

>  <Max_Train_Tanimoto_r3>  (212) 
0.6923076923076923

>  <Risk_Flags>  (212) 
candidate may be outside strict in-domain threshold

$$$$
CAND_R2_213 | DOPO-PPO-piperazine
     RDKit          2D

 62 71  0  0  0  0  0  0  0  0999 V2000
    3.0165  -12.4322    0.0000 O   0  0  0  0  0  0  0  0  0  0  0  0
    2.0524  -11.2832    0.0000 P   0  0  0  0  0  0  0  0  0  0  0  0
    3.2014  -10.3190    0.0000 O   0  0  0  0  0  0  0  0  0  0  0  0
    4.6110  -10.8320    0.0000 C   0  0  0  0  0  0  0  0  0  0  0  0
    5.7600   -9.8678    0.0000 C   0  0  0  0  0  0  0  0  0  0  0  0
    7.1696  -10.3809    0.0000 C   0  0  0  0  0  0  0  0  0  0  0  0
    7.4300  -11.8581    0.0000 C   0  0  0  0  0  0  0  0  0  0  0  0
    8.8396  -12.3711    0.0000 C   0  0  0  0  0  0  0  0  0  0  0  0
    9.9887  -11.4069    0.0000 O   0  0  0  0  0  0  0  0  0  0  0  0
    9.1001  -13.8483    0.0000 P   0  0  0  0  0  0  0  0  0  0  0  0
    7.6001  -13.8483    0.0000 O   0  0  0  0  0  0  0  0  0  0  0  0
   10.5096  -13.3353    0.0000 O   0  0  0  0  0  0  0  0  0  0  0  0
   11.6587  -14.2995    0.0000 C   0  0  0  0  0  0  0  0  0  0  0  0
   13.0682  -13.7864    0.0000 C   0  0  0  0  0  0  0  0  0  0  0  0
   14.2173  -14.7506    0.0000 C   0  0  0  0  0  0  0  0  0  0  0  0
   13.9568  -16.2278    0.0000 C   0  0  0  0  0  0  0  0  0  0  0  0
   12.5473  -16.7409    0.0000 C   0  0  0  0  0  0  0  0  0  0  0  0
   11.3982  -15.7767    0.0000 C   0  0  0  0  0  0  0  0  0  0  0  0
    9.9887  -16.2897    0.0000 C   0  0  0  0  0  0  0  0  0  0  0  0
    9.7282  -17.7669    0.0000 C   0  0  0  0  0  0  0  0  0  0  0  0
    8.3186  -18.2800    0.0000 C   0  0  0  0  0  0  0  0  0  0  0  0
    7.1696  -17.3158    0.0000 C   0  0  0  0  0  0  0  0  0  0  0  0
    7.4300  -15.8386    0.0000 C   0  0  0  0  0  0  0  0  0  0  0  0
    8.8396  -15.3255    0.0000 C   0  0  0  0  0  0  0  0  0  0  0  0
    6.2810  -12.8223    0.0000 C   0  0  0  0  0  0  0  0  0  0  0  0
    4.8714  -12.3092    0.0000 C   0  0  0  0  0  0  0  0  0  0  0  0
    0.9033  -12.2474    0.0000 O   0  0  0  0  0  0  0  0  0  0  0  0
    1.1638  -13.7246    0.0000 C   0  0  0  0  0  0  0  0  0  0  0  0
    2.5733  -14.2376    0.0000 C   0  0  0  0  0  0  0  0  0  0  0  0
    2.8338  -15.7148    0.0000 C   0  0  0  0  0  0  0  0  0  0  0  0
    1.6847  -16.6790    0.0000 C   0  0  0  0  0  0  0  0  0  0  0  0
    1.9452  -18.1562    0.0000 C   0  0  0  0  0  0  0  0  0  0  0  0
    3.3547  -18.6692    0.0000 O   0  0  0  0  0  0  0  0  0  0  0  0
    0.7961  -19.1204    0.0000 P   0  0  0  0  0  0  0  0  0  0  0  0
    1.9452  -20.0846    0.0000 O   0  0  0  0  0  0  0  0  0  0  0  0
    0.0461  -17.8213    0.0000 O   0  0  0  0  0  0  0  0  0  0  0  0
   -1.4539  -17.8213    0.0000 C   0  0  0  0  0  0  0  0  0  0  0  0
   -2.2039  -16.5223    0.0000 C   0  0  0  0  0  0  0  0  0  0  0  0
   -3.7039  -16.5223    0.0000 C   0  0  0  0  0  0  0  0  0  0  0  0
   -4.4539  -17.8213    0.0000 C   0  0  0  0  0  0  0  0  0  0  0  0
   -3.7039  -19.1204    0.0000 C   0  0  0  0  0  0  0  0  0  0  0  0
   -2.2039  -19.1204    0.0000 C   0  0  0  0  0  0  0  0  0  0  0  0
   -1.4539  -20.4194    0.0000 C   0  0  0  0  0  0  0  0  0  0  0  0
   -2.2039  -21.7185    0.0000 C   0  0  0  0  0  0  0  0  0  0  0  0
   -1.4539  -23.0175    0.0000 C   0  0  0  0  0  0  0  0  0  0  0  0
    0.0461  -23.0175    0.0000 C   0  0  0  0  0  0  0  0  0  0  0  0
    0.7961  -21.7185    0.0000 C   0  0  0  0  0  0  0  0  0  0  0  0
    0.0461  -20.4194    0.0000 C   0  0  0  0  0  0  0  0  0  0  0  0
    0.2752  -16.1660    0.0000 C   0  0  0  0  0  0  0  0  0  0  0  0
    0.0147  -14.6887    0.0000 C   0  0  0  0  0  0  0  0  0  0  0  0
    1.0882  -10.1341    0.0000 C   0  0  0  0  0  0  0  0  0  0  0  0
    1.6012   -8.7246    0.0000 C   0  0  0  0  0  0  0  0  0  0  0  0
    0.6370   -7.5755    0.0000 C   0  0  0  0  0  0  0  0  0  0  0  0
   -0.8402   -7.8360    0.0000 C   0  0  0  0  0  0  0  0  0  0  0  0
   -1.8044   -6.6869    0.0000 N   0  0  0  0  0  0  0  0  0  0  0  0
   -1.2913   -5.2774    0.0000 C   0  0  0  0  0  0  0  0  0  0  0  0
   -2.2555   -4.1283    0.0000 C   0  0  0  0  0  0  0  0  0  0  0  0
   -3.7327   -4.3888    0.0000 N   0  0  0  0  0  0  0  0  0  0  0  0
   -4.2458   -5.7983    0.0000 C   0  0  0  0  0  0  0  0  0  0  0  0
   -3.2816   -6.9474    0.0000 C   0  0  0  0  0  0  0  0  0  0  0  0
   -1.3532   -9.2455    0.0000 C   0  0  0  0  0  0  0  0  0  0  0  0
   -0.3890  -10.3946    0.0000 C   0  0  0  0  0  0  0  0  0  0  0  0
  1  2  2  0
  2  3  1  0
  3  4  1  0
  4  5  2  0
  5  6  1  0
  6  7  2  0
  7  8  1  0
  8  9  1  0
  8 10  1  0
 10 11  2  0
 10 12  1  0
 12 13  1  0
 13 14  2  0
 14 15  1  0
 15 16  2  0
 16 17  1  0
 17 18  2  0
 18 19  1  0
 19 20  2  0
 20 21  1  0
 21 22  2  0
 22 23  1  0
 23 24  2  0
  7 25  1  0
 25 26  2  0
  2 27  1  0
 27 28  1  0
 28 29  2  0
 29 30  1  0
 30 31  2  0
 31 32  1  0
 32 33  1  0
 32 34  1  0
 34 35  2  0
 34 36  1  0
 36 37  1  0
 37 38  2  0
 38 39  1  0
 39 40  2  0
 40 41  1  0
 41 42  2  0
 42 43  1  0
 43 44  2  0
 44 45  1  0
 45 46  2  0
 46 47  1  0
 47 48  2  0
 31 49  1  0
 49 50  2  0
  2 51  1  0
 51 52  2  0
 52 53  1  0
 53 54  2  0
 54 55  1  0
 55 56  1  0
 56 57  1  0
 57 58  1  0
 58 59  1  0
 59 60  1  0
 54 61  1  0
 61 62  2  0
 26  4  1  0
 50 28  1  0
 62 51  1  0
 24 10  1  0
 48 34  1  0
 60 55  1  0
 18 13  1  0
 24 19  1  0
 42 37  1  0
 48 43  1  0
M  END
>  <Candidate_ID>  (213) 
CAND_R2_213

>  <Candidate_Name>  (213) 
DOPO-PPO-piperazine

>  <Parent_Seed_ID>  (213) 
TRAIN_080

>  <Parent_Name>  (213) 
DOPO-PPO

>  <Transformation_Code>  (213) 
piperazine

>  <Design_Family>  (213) 
P-N

>  <Preparation_Type>  (213) 
Co-curing

>  <Synthesis_Level>  (213) 
B

>  <Parent_Tanimoto_r3>  (213) 
0.6847826086956522

>  <Max_Train_Tanimoto_r3>  (213) 
0.6847826086956522

>  <Risk_Flags>  (213) 
candidate may be outside strict in-domain threshold

$$$$
CAND_R2_214 | DOPO-PPO-benzamide-linker
     RDKit          2D

 65 74  0  0  0  0  0  0  0  0999 V2000
   -3.7946   -8.3569    0.0000 O   0  0  0  0  0  0  0  0  0  0  0  0
   -3.2816   -6.9474    0.0000 C   0  0  0  0  0  0  0  0  0  0  0  0
   -1.8044   -6.6869    0.0000 N   0  0  0  0  0  0  0  0  0  0  0  0
   -0.8402   -7.8360    0.0000 C   0  0  0  0  0  0  0  0  0  0  0  0
   -1.3532   -9.2455    0.0000 C   0  0  0  0  0  0  0  0  0  0  0  0
   -0.3890  -10.3946    0.0000 C   0  0  0  0  0  0  0  0  0  0  0  0
    1.0882  -10.1341    0.0000 C   0  0  0  0  0  0  0  0  0  0  0  0
    2.0524  -11.2832    0.0000 P   0  0  0  0  0  0  0  0  0  0  0  0
    3.0165  -12.4322    0.0000 O   0  0  0  0  0  0  0  0  0  0  0  0
    3.2014  -10.3190    0.0000 O   0  0  0  0  0  0  0  0  0  0  0  0
    4.6110  -10.8320    0.0000 C   0  0  0  0  0  0  0  0  0  0  0  0
    5.7600   -9.8678    0.0000 C   0  0  0  0  0  0  0  0  0  0  0  0
    7.1696  -10.3809    0.0000 C   0  0  0  0  0  0  0  0  0  0  0  0
    7.4300  -11.8581    0.0000 C   0  0  0  0  0  0  0  0  0  0  0  0
    8.8396  -12.3711    0.0000 C   0  0  0  0  0  0  0  0  0  0  0  0
    9.9887  -11.4069    0.0000 O   0  0  0  0  0  0  0  0  0  0  0  0
    9.1001  -13.8483    0.0000 P   0  0  0  0  0  0  0  0  0  0  0  0
    7.6001  -13.8483    0.0000 O   0  0  0  0  0  0  0  0  0  0  0  0
   10.5096  -13.3353    0.0000 O   0  0  0  0  0  0  0  0  0  0  0  0
   11.6587  -14.2995    0.0000 C   0  0  0  0  0  0  0  0  0  0  0  0
   13.0682  -13.7864    0.0000 C   0  0  0  0  0  0  0  0  0  0  0  0
   14.2173  -14.7506    0.0000 C   0  0  0  0  0  0  0  0  0  0  0  0
   13.9568  -16.2278    0.0000 C   0  0  0  0  0  0  0  0  0  0  0  0
   12.5473  -16.7409    0.0000 C   0  0  0  0  0  0  0  0  0  0  0  0
   11.3982  -15.7767    0.0000 C   0  0  0  0  0  0  0  0  0  0  0  0
    9.9887  -16.2897    0.0000 C   0  0  0  0  0  0  0  0  0  0  0  0
    9.7282  -17.7669    0.0000 C   0  0  0  0  0  0  0  0  0  0  0  0
    8.3186  -18.2800    0.0000 C   0  0  0  0  0  0  0  0  0  0  0  0
    7.1696  -17.3158    0.0000 C   0  0  0  0  0  0  0  0  0  0  0  0
    7.4300  -15.8386    0.0000 C   0  0  0  0  0  0  0  0  0  0  0  0
    8.8396  -15.3255    0.0000 C   0  0  0  0  0  0  0  0  0  0  0  0
    6.2810  -12.8223    0.0000 C   0  0  0  0  0  0  0  0  0  0  0  0
    4.8714  -12.3092    0.0000 C   0  0  0  0  0  0  0  0  0  0  0  0
    0.9033  -12.2474    0.0000 O   0  0  0  0  0  0  0  0  0  0  0  0
    1.1638  -13.7246    0.0000 C   0  0  0  0  0  0  0  0  0  0  0  0
    2.5733  -14.2376    0.0000 C   0  0  0  0  0  0  0  0  0  0  0  0
    2.8338  -15.7148    0.0000 C   0  0  0  0  0  0  0  0  0  0  0  0
    1.6847  -16.6790    0.0000 C   0  0  0  0  0  0  0  0  0  0  0  0
    1.9452  -18.1562    0.0000 C   0  0  0  0  0  0  0  0  0  0  0  0
    3.3547  -18.6692    0.0000 O   0  0  0  0  0  0  0  0  0  0  0  0
    0.7961  -19.1204    0.0000 P   0  0  0  0  0  0  0  0  0  0  0  0
    0.0461  -17.8213    0.0000 O   0  0  0  0  0  0  0  0  0  0  0  0
    1.9452  -20.0846    0.0000 O   0  0  0  0  0  0  0  0  0  0  0  0
    1.6847  -21.5618    0.0000 C   0  0  0  0  0  0  0  0  0  0  0  0
    2.8338  -22.5260    0.0000 C   0  0  0  0  0  0  0  0  0  0  0  0
    2.5733  -24.0032    0.0000 C   0  0  0  0  0  0  0  0  0  0  0  0
    1.1638  -24.5162    0.0000 C   0  0  0  0  0  0  0  0  0  0  0  0
    0.0147  -23.5520    0.0000 C   0  0  0  0  0  0  0  0  0  0  0  0
    0.2752  -22.0748    0.0000 C   0  0  0  0  0  0  0  0  0  0  0  0
   -0.8739  -21.1106    0.0000 C   0  0  0  0  0  0  0  0  0  0  0  0
   -2.2834  -21.6237    0.0000 C   0  0  0  0  0  0  0  0  0  0  0  0
   -3.4325  -20.6595    0.0000 C   0  0  0  0  0  0  0  0  0  0  0  0
   -3.1720  -19.1823    0.0000 C   0  0  0  0  0  0  0  0  0  0  0  0
   -1.7625  -18.6692    0.0000 C   0  0  0  0  0  0  0  0  0  0  0  0
   -0.6134  -19.6334    0.0000 C   0  0  0  0  0  0  0  0  0  0  0  0
    0.2752  -16.1660    0.0000 C   0  0  0  0  0  0  0  0  0  0  0  0
    0.0147  -14.6887    0.0000 C   0  0  0  0  0  0  0  0  0  0  0  0
    1.6012   -8.7246    0.0000 C   0  0  0  0  0  0  0  0  0  0  0  0
    0.6370   -7.5755    0.0000 C   0  0  0  0  0  0  0  0  0  0  0  0
   -4.2458   -5.7983    0.0000 C   0  0  0  0  0  0  0  0  0  0  0  0
   -3.7327   -4.3888    0.0000 C   0  0  0  0  0  0  0  0  0  0  0  0
   -4.6969   -3.2397    0.0000 C   0  0  0  0  0  0  0  0  0  0  0  0
   -6.1741   -3.5002    0.0000 C   0  0  0  0  0  0  0  0  0  0  0  0
   -6.6872   -4.9097    0.0000 C   0  0  0  0  0  0  0  0  0  0  0  0
   -5.7230   -6.0588    0.0000 C   0  0  0  0  0  0  0  0  0  0  0  0
  1  2  2  0
  2  3  1  0
  3  4  1  0
  4  5  2  0
  5  6  1  0
  6  7  2  0
  7  8  1  0
  8  9  2  0
  8 10  1  0
 10 11  1  0
 11 12  2  0
 12 13  1  0
 13 14  2  0
 14 15  1  0
 15 16  1  0
 15 17  1  0
 17 18  2  0
 17 19  1  0
 19 20  1  0
 20 21  2  0
 21 22  1  0
 22 23  2  0
 23 24  1  0
 24 25  2  0
 25 26  1  0
 26 27  2  0
 27 28  1  0
 28 29  2  0
 29 30  1  0
 30 31  2  0
 14 32  1  0
 32 33  2  0
  8 34  1  0
 34 35  1  0
 35 36  2  0
 36 37  1  0
 37 38  2  0
 38 39  1  0
 39 40  1  0
 39 41  1  0
 41 42  2  0
 41 43  1  0
 43 44  1  0
 44 45  2  0
 45 46  1  0
 46 47  2  0
 47 48  1  0
 48 49  2  0
 49 50  1  0
 50 51  2  0
 51 52  1  0
 52 53  2  0
 53 54  1  0
 54 55  2  0
 38 56  1  0
 56 57  2  0
  7 58  1  0
 58 59  2  0
  2 60  1  0
 60 61  2  0
 61 62  1  0
 62 63  2  0
 63 64  1  0
 64 65  2  0
 59  4  1  0
 65 60  1  0
 33 11  1  0
 57 35  1  0
 31 17  1  0
 55 41  1  0
 25 20  1  0
 31 26  1  0
 49 44  1  0
 55 50  1  0
M  END
>  <Candidate_ID>  (214) 
CAND_R2_214

>  <Candidate_Name>  (214) 
DOPO-PPO-benzamide-linker

>  <Parent_Seed_ID>  (214) 
TRAIN_080

>  <Parent_Name>  (214) 
DOPO-PPO

>  <Transformation_Code>  (214) 
benzamide_linker

>  <Design_Family>  (214) 
P-N

>  <Preparation_Type>  (214) 
Additive

>  <Synthesis_Level>  (214) 
B

>  <Parent_Tanimoto_r3>  (214) 
0.7415730337078652

>  <Max_Train_Tanimoto_r3>  (214) 
0.7415730337078652

>  <Risk_Flags>  (214) 
none

$$$$
CAND_R2_215 | DOPO-PPO-phenyl
     RDKit          2D

 62 71  0  0  0  0  0  0  0  0999 V2000
    3.0165  -12.4322    0.0000 O   0  0  0  0  0  0  0  0  0  0  0  0
    2.0524  -11.2832    0.0000 P   0  0  0  0  0  0  0  0  0  0  0  0
    3.2014  -10.3190    0.0000 O   0  0  0  0  0  0  0  0  0  0  0  0
    4.6110  -10.8320    0.0000 C   0  0  0  0  0  0  0  0  0  0  0  0
    5.7600   -9.8678    0.0000 C   0  0  0  0  0  0  0  0  0  0  0  0
    7.1696  -10.3809    0.0000 C   0  0  0  0  0  0  0  0  0  0  0  0
    7.4300  -11.8581    0.0000 C   0  0  0  0  0  0  0  0  0  0  0  0
    8.8396  -12.3711    0.0000 C   0  0  0  0  0  0  0  0  0  0  0  0
    9.9887  -11.4069    0.0000 O   0  0  0  0  0  0  0  0  0  0  0  0
    9.1001  -13.8483    0.0000 P   0  0  0  0  0  0  0  0  0  0  0  0
    7.6001  -13.8483    0.0000 O   0  0  0  0  0  0  0  0  0  0  0  0
   10.5096  -13.3353    0.0000 O   0  0  0  0  0  0  0  0  0  0  0  0
   11.6587  -14.2995    0.0000 C   0  0  0  0  0  0  0  0  0  0  0  0
   13.0682  -13.7864    0.0000 C   0  0  0  0  0  0  0  0  0  0  0  0
   14.2173  -14.7506    0.0000 C   0  0  0  0  0  0  0  0  0  0  0  0
   13.9568  -16.2278    0.0000 C   0  0  0  0  0  0  0  0  0  0  0  0
   12.5473  -16.7409    0.0000 C   0  0  0  0  0  0  0  0  0  0  0  0
   11.3982  -15.7767    0.0000 C   0  0  0  0  0  0  0  0  0  0  0  0
    9.9887  -16.2897    0.0000 C   0  0  0  0  0  0  0  0  0  0  0  0
    9.7282  -17.7669    0.0000 C   0  0  0  0  0  0  0  0  0  0  0  0
    8.3186  -18.2800    0.0000 C   0  0  0  0  0  0  0  0  0  0  0  0
    7.1696  -17.3158    0.0000 C   0  0  0  0  0  0  0  0  0  0  0  0
    7.4300  -15.8386    0.0000 C   0  0  0  0  0  0  0  0  0  0  0  0
    8.8396  -15.3255    0.0000 C   0  0  0  0  0  0  0  0  0  0  0  0
    6.2810  -12.8223    0.0000 C   0  0  0  0  0  0  0  0  0  0  0  0
    4.8714  -12.3092    0.0000 C   0  0  0  0  0  0  0  0  0  0  0  0
    0.9033  -12.2474    0.0000 O   0  0  0  0  0  0  0  0  0  0  0  0
    1.1638  -13.7246    0.0000 C   0  0  0  0  0  0  0  0  0  0  0  0
    2.5733  -14.2376    0.0000 C   0  0  0  0  0  0  0  0  0  0  0  0
    2.8338  -15.7148    0.0000 C   0  0  0  0  0  0  0  0  0  0  0  0
    1.6847  -16.6790    0.0000 C   0  0  0  0  0  0  0  0  0  0  0  0
    1.9452  -18.1562    0.0000 C   0  0  0  0  0  0  0  0  0  0  0  0
    3.3547  -18.6692    0.0000 O   0  0  0  0  0  0  0  0  0  0  0  0
    0.7961  -19.1204    0.0000 P   0  0  0  0  0  0  0  0  0  0  0  0
    1.9452  -20.0846    0.0000 O   0  0  0  0  0  0  0  0  0  0  0  0
    0.0461  -17.8213    0.0000 O   0  0  0  0  0  0  0  0  0  0  0  0
   -1.4539  -17.8213    0.0000 C   0  0  0  0  0  0  0  0  0  0  0  0
   -2.2039  -16.5223    0.0000 C   0  0  0  0  0  0  0  0  0  0  0  0
   -3.7039  -16.5223    0.0000 C   0  0  0  0  0  0  0  0  0  0  0  0
   -4.4539  -17.8213    0.0000 C   0  0  0  0  0  0  0  0  0  0  0  0
   -3.7039  -19.1204    0.0000 C   0  0  0  0  0  0  0  0  0  0  0  0
   -2.2039  -19.1204    0.0000 C   0  0  0  0  0  0  0  0  0  0  0  0
   -1.4539  -20.4194    0.0000 C   0  0  0  0  0  0  0  0  0  0  0  0
   -2.2039  -21.7185    0.0000 C   0  0  0  0  0  0  0  0  0  0  0  0
   -1.4539  -23.0175    0.0000 C   0  0  0  0  0  0  0  0  0  0  0  0
    0.0461  -23.0175    0.0000 C   0  0  0  0  0  0  0  0  0  0  0  0
    0.7961  -21.7185    0.0000 C   0  0  0  0  0  0  0  0  0  0  0  0
    0.0461  -20.4194    0.0000 C   0  0  0  0  0  0  0  0  0  0  0  0
    0.2752  -16.1660    0.0000 C   0  0  0  0  0  0  0  0  0  0  0  0
    0.0147  -14.6887    0.0000 C   0  0  0  0  0  0  0  0  0  0  0  0
    1.0882  -10.1341    0.0000 C   0  0  0  0  0  0  0  0  0  0  0  0
    1.6012   -8.7246    0.0000 C   0  0  0  0  0  0  0  0  0  0  0  0
    0.6370   -7.5755    0.0000 C   0  0  0  0  0  0  0  0  0  0  0  0
   -0.8402   -7.8360    0.0000 C   0  0  0  0  0  0  0  0  0  0  0  0
   -1.8044   -6.6869    0.0000 C   0  0  0  0  0  0  0  0  0  0  0  0
   -1.2913   -5.2774    0.0000 C   0  0  0  0  0  0  0  0  0  0  0  0
   -2.2555   -4.1283    0.0000 C   0  0  0  0  0  0  0  0  0  0  0  0
   -3.7327   -4.3888    0.0000 C   0  0  0  0  0  0  0  0  0  0  0  0
   -4.2458   -5.7983    0.0000 C   0  0  0  0  0  0  0  0  0  0  0  0
   -3.2816   -6.9474    0.0000 C   0  0  0  0  0  0  0  0  0  0  0  0
   -1.3532   -9.2455    0.0000 C   0  0  0  0  0  0  0  0  0  0  0  0
   -0.3890  -10.3946    0.0000 C   0  0  0  0  0  0  0  0  0  0  0  0
  1  2  2  0
  2  3  1  0
  3  4  1  0
  4  5  2  0
  5  6  1  0
  6  7  2  0
  7  8  1  0
  8  9  1  0
  8 10  1  0
 10 11  2  0
 10 12  1  0
 12 13  1  0
 13 14  2  0
 14 15  1  0
 15 16  2  0
 16 17  1  0
 17 18  2  0
 18 19  1  0
 19 20  2  0
 20 21  1  0
 21 22  2  0
 22 23  1  0
 23 24  2  0
  7 25  1  0
 25 26  2  0
  2 27  1  0
 27 28  1  0
 28 29  2  0
 29 30  1  0
 30 31  2  0
 31 32  1  0
 32 33  1  0
 32 34  1  0
 34 35  2  0
 34 36  1  0
 36 37  1  0
 37 38  2  0
 38 39  1  0
 39 40  2  0
 40 41  1  0
 41 42  2  0
 42 43  1  0
 43 44  2  0
 44 45  1  0
 45 46  2  0
 46 47  1  0
 47 48  2  0
 31 49  1  0
 49 50  2  0
  2 51  1  0
 51 52  2  0
 52 53  1  0
 53 54  2  0
 54 55  1  0
 55 56  2  0
 56 57  1  0
 57 58  2  0
 58 59  1  0
 59 60  2  0
 54 61  1  0
 61 62  2  0
 26  4  1  0
 50 28  1  0
 62 51  1  0
 24 10  1  0
 48 34  1  0
 60 55  1  0
 18 13  1  0
 24 19  1  0
 42 37  1  0
 48 43  1  0
M  END
>  <Candidate_ID>  (215) 
CAND_R2_215

>  <Candidate_Name>  (215) 
DOPO-PPO-phenyl

>  <Parent_Seed_ID>  (215) 
TRAIN_080

>  <Parent_Name>  (215) 
DOPO-PPO

>  <Transformation_Code>  (215) 
phenyl

>  <Design_Family>  (215) 
P-only

>  <Preparation_Type>  (215) 
Additive

>  <Synthesis_Level>  (215) 
B

>  <Parent_Tanimoto_r3>  (215) 
0.8024691358024691

>  <Max_Train_Tanimoto_r3>  (215) 
0.8024691358024691

>  <Risk_Flags>  (215) 
none

$$$$
CAND_R2_216 | DOPO-PPO-biphenyl
     RDKit          2D

 68 78  0  0  0  0  0  0  0  0999 V2000
    3.0165  -12.4322    0.0000 O   0  0  0  0  0  0  0  0  0  0  0  0
    2.0524  -11.2832    0.0000 P   0  0  0  0  0  0  0  0  0  0  0  0
    3.2014  -10.3190    0.0000 O   0  0  0  0  0  0  0  0  0  0  0  0
    4.6110  -10.8320    0.0000 C   0  0  0  0  0  0  0  0  0  0  0  0
    5.7600   -9.8678    0.0000 C   0  0  0  0  0  0  0  0  0  0  0  0
    7.1696  -10.3809    0.0000 C   0  0  0  0  0  0  0  0  0  0  0  0
    7.4300  -11.8581    0.0000 C   0  0  0  0  0  0  0  0  0  0  0  0
    8.8396  -12.3711    0.0000 C   0  0  0  0  0  0  0  0  0  0  0  0
    9.9887  -11.4069    0.0000 O   0  0  0  0  0  0  0  0  0  0  0  0
    9.1001  -13.8483    0.0000 P   0  0  0  0  0  0  0  0  0  0  0  0
    7.6001  -13.8483    0.0000 O   0  0  0  0  0  0  0  0  0  0  0  0
   10.5096  -13.3353    0.0000 O   0  0  0  0  0  0  0  0  0  0  0  0
   11.6587  -14.2995    0.0000 C   0  0  0  0  0  0  0  0  0  0  0  0
   13.0682  -13.7864    0.0000 C   0  0  0  0  0  0  0  0  0  0  0  0
   14.2173  -14.7506    0.0000 C   0  0  0  0  0  0  0  0  0  0  0  0
   13.9568  -16.2278    0.0000 C   0  0  0  0  0  0  0  0  0  0  0  0
   12.5473  -16.7409    0.0000 C   0  0  0  0  0  0  0  0  0  0  0  0
   11.3982  -15.7767    0.0000 C   0  0  0  0  0  0  0  0  0  0  0  0
    9.9887  -16.2897    0.0000 C   0  0  0  0  0  0  0  0  0  0  0  0
    9.7282  -17.7669    0.0000 C   0  0  0  0  0  0  0  0  0  0  0  0
    8.3186  -18.2800    0.0000 C   0  0  0  0  0  0  0  0  0  0  0  0
    7.1696  -17.3158    0.0000 C   0  0  0  0  0  0  0  0  0  0  0  0
    7.4300  -15.8386    0.0000 C   0  0  0  0  0  0  0  0  0  0  0  0
    8.8396  -15.3255    0.0000 C   0  0  0  0  0  0  0  0  0  0  0  0
    6.2810  -12.8223    0.0000 C   0  0  0  0  0  0  0  0  0  0  0  0
    4.8714  -12.3092    0.0000 C   0  0  0  0  0  0  0  0  0  0  0  0
    0.9033  -12.2474    0.0000 O   0  0  0  0  0  0  0  0  0  0  0  0
    1.1638  -13.7246    0.0000 C   0  0  0  0  0  0  0  0  0  0  0  0
    2.5733  -14.2376    0.0000 C   0  0  0  0  0  0  0  0  0  0  0  0
    2.8338  -15.7148    0.0000 C   0  0  0  0  0  0  0  0  0  0  0  0
    1.6847  -16.6790    0.0000 C   0  0  0  0  0  0  0  0  0  0  0  0
    1.9452  -18.1562    0.0000 C   0  0  0  0  0  0  0  0  0  0  0  0
    3.3547  -18.6692    0.0000 O   0  0  0  0  0  0  0  0  0  0  0  0
    0.7961  -19.1204    0.0000 P   0  0  0  0  0  0  0  0  0  0  0  0
    1.9452  -20.0846    0.0000 O   0  0  0  0  0  0  0  0  0  0  0  0
    0.0461  -17.8213    0.0000 O   0  0  0  0  0  0  0  0  0  0  0  0
   -1.4539  -17.8213    0.0000 C   0  0  0  0  0  0  0  0  0  0  0  0
   -2.2039  -16.5223    0.0000 C   0  0  0  0  0  0  0  0  0  0  0  0
   -3.7039  -16.5223    0.0000 C   0  0  0  0  0  0  0  0  0  0  0  0
   -4.4539  -17.8213    0.0000 C   0  0  0  0  0  0  0  0  0  0  0  0
   -3.7039  -19.1204    0.0000 C   0  0  0  0  0  0  0  0  0  0  0  0
   -2.2039  -19.1204    0.0000 C   0  0  0  0  0  0  0  0  0  0  0  0
   -1.4539  -20.4194    0.0000 C   0  0  0  0  0  0  0  0  0  0  0  0
   -2.2039  -21.7185    0.0000 C   0  0  0  0  0  0  0  0  0  0  0  0
   -1.4539  -23.0175    0.0000 C   0  0  0  0  0  0  0  0  0  0  0  0
    0.0461  -23.0175    0.0000 C   0  0  0  0  0  0  0  0  0  0  0  0
    0.7961  -21.7185    0.0000 C   0  0  0  0  0  0  0  0  0  0  0  0
    0.0461  -20.4194    0.0000 C   0  0  0  0  0  0  0  0  0  0  0  0
    0.2752  -16.1660    0.0000 C   0  0  0  0  0  0  0  0  0  0  0  0
    0.0147  -14.6887    0.0000 C   0  0  0  0  0  0  0  0  0  0  0  0
    1.0882  -10.1341    0.0000 C   0  0  0  0  0  0  0  0  0  0  0  0
    1.6012   -8.7246    0.0000 C   0  0  0  0  0  0  0  0  0  0  0  0
    0.6370   -7.5755    0.0000 C   0  0  0  0  0  0  0  0  0  0  0  0
   -0.8402   -7.8360    0.0000 C   0  0  0  0  0  0  0  0  0  0  0  0
   -1.8044   -6.6869    0.0000 C   0  0  0  0  0  0  0  0  0  0  0  0
   -1.2913   -5.2774    0.0000 C   0  0  0  0  0  0  0  0  0  0  0  0
   -2.2555   -4.1283    0.0000 C   0  0  0  0  0  0  0  0  0  0  0  0
   -3.7327   -4.3888    0.0000 C   0  0  0  0  0  0  0  0  0  0  0  0
   -4.6969   -3.2397    0.0000 C   0  0  0  0  0  0  0  0  0  0  0  0
   -4.1839   -1.8302    0.0000 C   0  0  0  0  0  0  0  0  0  0  0  0
   -5.1481   -0.6811    0.0000 C   0  0  0  0  0  0  0  0  0  0  0  0
   -6.6253   -0.9416    0.0000 C   0  0  0  0  0  0  0  0  0  0  0  0
   -7.1383   -2.3511    0.0000 C   0  0  0  0  0  0  0  0  0  0  0  0
   -6.1741   -3.5002    0.0000 C   0  0  0  0  0  0  0  0  0  0  0  0
   -4.2458   -5.7983    0.0000 C   0  0  0  0  0  0  0  0  0  0  0  0
   -3.2816   -6.9474    0.0000 C   0  0  0  0  0  0  0  0  0  0  0  0
   -1.3532   -9.2455    0.0000 C   0  0  0  0  0  0  0  0  0  0  0  0
   -0.3890  -10.3946    0.0000 C   0  0  0  0  0  0  0  0  0  0  0  0
  1  2  2  0
  2  3  1  0
  3  4  1  0
  4  5  2  0
  5  6  1  0
  6  7  2  0
  7  8  1  0
  8  9  1  0
  8 10  1  0
 10 11  2  0
 10 12  1  0
 12 13  1  0
 13 14  2  0
 14 15  1  0
 15 16  2  0
 16 17  1  0
 17 18  2  0
 18 19  1  0
 19 20  2  0
 20 21  1  0
 21 22  2  0
 22 23  1  0
 23 24  2  0
  7 25  1  0
 25 26  2  0
  2 27  1  0
 27 28  1  0
 28 29  2  0
 29 30  1  0
 30 31  2  0
 31 32  1  0
 32 33  1  0
 32 34  1  0
 34 35  2  0
 34 36  1  0
 36 37  1  0
 37 38  2  0
 38 39  1  0
 39 40  2  0
 40 41  1  0
 41 42  2  0
 42 43  1  0
 43 44  2  0
 44 45  1  0
 45 46  2  0
 46 47  1  0
 47 48  2  0
 31 49  1  0
 49 50  2  0
  2 51  1  0
 51 52  2  0
 52 53  1  0
 53 54  2  0
 54 55  1  0
 55 56  2  0
 56 57  1  0
 57 58  2  0
 58 59  1  0
 59 60  2  0
 60 61  1  0
 61 62  2  0
 62 63  1  0
 63 64  2  0
 58 65  1  0
 65 66  2  0
 54 67  1  0
 67 68  2  0
 26  4  1  0
 50 28  1  0
 68 51  1  0
 24 10  1  0
 48 34  1  0
 66 55  1  0
 18 13  1  0
 24 19  1  0
 42 37  1  0
 48 43  1  0
 64 59  1  0
M  END
>  <Candidate_ID>  (216) 
CAND_R2_216

>  <Candidate_Name>  (216) 
DOPO-PPO-biphenyl

>  <Parent_Seed_ID>  (216) 
TRAIN_080

>  <Parent_Name>  (216) 
DOPO-PPO

>  <Transformation_Code>  (216) 
biphenyl

>  <Design_Family>  (216) 
P-only

>  <Preparation_Type>  (216) 
Additive

>  <Synthesis_Level>  (216) 
B

>  <Parent_Tanimoto_r3>  (216) 
0.7926829268292683

>  <Max_Train_Tanimoto_r3>  (216) 
0.7926829268292683

>  <Risk_Flags>  (216) 
none

$$$$
CAND_R2_217 | DOPO-PPO-OH-glycidyl-all
     RDKit          2D

 64 74  0  0  0  0  0  0  0  0999 V2000
    3.0165  -12.4322    0.0000 O   0  0  0  0  0  0  0  0  0  0  0  0
    2.0524  -11.2832    0.0000 P   0  0  0  0  0  0  0  0  0  0  0  0
    3.2014  -10.3190    0.0000 O   0  0  0  0  0  0  0  0  0  0  0  0
    4.6110  -10.8320    0.0000 C   0  0  0  0  0  0  0  0  0  0  0  0
    5.7600   -9.8678    0.0000 C   0  0  0  0  0  0  0  0  0  0  0  0
    7.1696  -10.3809    0.0000 C   0  0  0  0  0  0  0  0  0  0  0  0
    7.4300  -11.8581    0.0000 C   0  0  0  0  0  0  0  0  0  0  0  0
    8.8396  -12.3711    0.0000 C   0  0  0  0  0  0  0  0  0  0  0  0
    9.9887  -11.4069    0.0000 O   0  0  0  0  0  0  0  0  0  0  0  0
    9.7282   -9.9297    0.0000 C   0  0  0  0  0  0  0  0  0  0  0  0
   10.8772   -8.9655    0.0000 C   0  0  0  0  0  0  0  0  0  0  0  0
   12.3545   -8.7051    0.0000 C   0  0  0  0  0  0  0  0  0  0  0  0
   11.3903   -7.5560    0.0000 O   0  0  0  0  0  0  0  0  0  0  0  0
    9.1001  -13.8483    0.0000 P   0  0  0  0  0  0  0  0  0  0  0  0
    7.6001  -13.8483    0.0000 O   0  0  0  0  0  0  0  0  0  0  0  0
   10.5096  -13.3353    0.0000 O   0  0  0  0  0  0  0  0  0  0  0  0
   11.6587  -14.2995    0.0000 C   0  0  0  0  0  0  0  0  0  0  0  0
   13.0682  -13.7864    0.0000 C   0  0  0  0  0  0  0  0  0  0  0  0
   14.2173  -14.7506    0.0000 C   0  0  0  0  0  0  0  0  0  0  0  0
   13.9568  -16.2278    0.0000 C   0  0  0  0  0  0  0  0  0  0  0  0
   12.5473  -16.7409    0.0000 C   0  0  0  0  0  0  0  0  0  0  0  0
   11.3982  -15.7767    0.0000 C   0  0  0  0  0  0  0  0  0  0  0  0
    9.9887  -16.2897    0.0000 C   0  0  0  0  0  0  0  0  0  0  0  0
    9.7282  -17.7669    0.0000 C   0  0  0  0  0  0  0  0  0  0  0  0
    8.3186  -18.2800    0.0000 C   0  0  0  0  0  0  0  0  0  0  0  0
    7.1696  -17.3158    0.0000 C   0  0  0  0  0  0  0  0  0  0  0  0
    7.4300  -15.8386    0.0000 C   0  0  0  0  0  0  0  0  0  0  0  0
    8.8396  -15.3255    0.0000 C   0  0  0  0  0  0  0  0  0  0  0  0
    6.2810  -12.8223    0.0000 C   0  0  0  0  0  0  0  0  0  0  0  0
    4.8714  -12.3092    0.0000 C   0  0  0  0  0  0  0  0  0  0  0  0
    0.9033  -12.2474    0.0000 O   0  0  0  0  0  0  0  0  0  0  0  0
    1.1638  -13.7246    0.0000 C   0  0  0  0  0  0  0  0  0  0  0  0
    2.5733  -14.2376    0.0000 C   0  0  0  0  0  0  0  0  0  0  0  0
    2.8338  -15.7148    0.0000 C   0  0  0  0  0  0  0  0  0  0  0  0
    1.6847  -16.6790    0.0000 C   0  0  0  0  0  0  0  0  0  0  0  0
    1.9452  -18.1562    0.0000 C   0  0  0  0  0  0  0  0  0  0  0  0
    3.3547  -18.6692    0.0000 O   0  0  0  0  0  0  0  0  0  0  0  0
    3.6152  -20.1464    0.0000 C   0  0  0  0  0  0  0  0  0  0  0  0
    5.0247  -20.6595    0.0000 C   0  0  0  0  0  0  0  0  0  0  0  0
    5.9889  -21.8085    0.0000 C   0  0  0  0  0  0  0  0  0  0  0  0
    6.5019  -20.3990    0.0000 O   0  0  0  0  0  0  0  0  0  0  0  0
    0.7961  -19.1204    0.0000 P   0  0  0  0  0  0  0  0  0  0  0  0
    0.0461  -17.8213    0.0000 O   0  0  0  0  0  0  0  0  0  0  0  0
    1.9452  -20.0846    0.0000 O   0  0  0  0  0  0  0  0  0  0  0  0
    1.6847  -21.5618    0.0000 C   0  0  0  0  0  0  0  0  0  0  0  0
    2.8338  -22.5260    0.0000 C   0  0  0  0  0  0  0  0  0  0  0  0
    2.5733  -24.0032    0.0000 C   0  0  0  0  0  0  0  0  0  0  0  0
    1.1638  -24.5162    0.0000 C   0  0  0  0  0  0  0  0  0  0  0  0
    0.0147  -23.5520    0.0000 C   0  0  0  0  0  0  0  0  0  0  0  0
    0.2752  -22.0748    0.0000 C   0  0  0  0  0  0  0  0  0  0  0  0
   -0.8739  -21.1106    0.0000 C   0  0  0  0  0  0  0  0  0  0  0  0
   -2.2834  -21.6237    0.0000 C   0  0  0  0  0  0  0  0  0  0  0  0
   -3.4325  -20.6595    0.0000 C   0  0  0  0  0  0  0  0  0  0  0  0
   -3.1720  -19.1823    0.0000 C   0  0  0  0  0  0  0  0  0  0  0  0
   -1.7625  -18.6692    0.0000 C   0  0  0  0  0  0  0  0  0  0  0  0
   -0.6134  -19.6334    0.0000 C   0  0  0  0  0  0  0  0  0  0  0  0
    0.2752  -16.1660    0.0000 C   0  0  0  0  0  0  0  0  0  0  0  0
    0.0147  -14.6887    0.0000 C   0  0  0  0  0  0  0  0  0  0  0  0
    1.0882  -10.1341    0.0000 C   0  0  0  0  0  0  0  0  0  0  0  0
    1.6012   -8.7246    0.0000 C   0  0  0  0  0  0  0  0  0  0  0  0
    0.6370   -7.5755    0.0000 C   0  0  0  0  0  0  0  0  0  0  0  0
   -0.8402   -7.8360    0.0000 C   0  0  0  0  0  0  0  0  0  0  0  0
   -1.3532   -9.2455    0.0000 C   0  0  0  0  0  0  0  0  0  0  0  0
   -0.3890  -10.3946    0.0000 C   0  0  0  0  0  0  0  0  0  0  0  0
  1  2  2  0
  2  3  1  0
  3  4  1  0
  4  5  2  0
  5  6  1  0
  6  7  2  0
  7  8  1  0
  8  9  1  0
  9 10  1  0
 10 11  1  0
 11 12  1  0
 12 13  1  0
  8 14  1  0
 14 15  2  0
 14 16  1  0
 16 17  1  0
 17 18  2  0
 18 19  1  0
 19 20  2  0
 20 21  1  0
 21 22  2  0
 22 23  1  0
 23 24  2  0
 24 25  1  0
 25 26  2  0
 26 27  1  0
 27 28  2  0
  7 29  1  0
 29 30  2  0
  2 31  1  0
 31 32  1  0
 32 33  2  0
 33 34  1  0
 34 35  2  0
 35 36  1  0
 36 37  1  0
 37 38  1  0
 38 39  1  0
 39 40  1  0
 40 41  1  0
 36 42  1  0
 42 43  2  0
 42 44  1  0
 44 45  1  0
 45 46  2  0
 46 47  1  0
 47 48  2  0
 48 49  1  0
 49 50  2  0
 50 51  1  0
 51 52  2  0
 52 53  1  0
 53 54  2  0
 54 55  1  0
 55 56  2  0
 35 57  1  0
 57 58  2  0
  2 59  1  0
 59 60  2  0
 60 61  1  0
 61 62  2  0
 62 63  1  0
 63 64  2  0
 30  4  1  0
 58 32  1  0
 64 59  1  0
 13 11  1  0
 28 14  1  0
 41 39  1  0
 56 42  1  0
 22 17  1  0
 28 23  1  0
 50 45  1  0
 56 51  1  0
M  END
>  <Candidate_ID>  (217) 
CAND_R2_217

>  <Candidate_Name>  (217) 
DOPO-PPO-OH-glycidyl-all

>  <Parent_Seed_ID>  (217) 
TRAIN_080

>  <Parent_Name>  (217) 
DOPO-PPO

>  <Transformation_Code>  (217) 
OH_glycidyl_all

>  <Design_Family>  (217) 
P-only

>  <Preparation_Type>  (217) 
Co-curing

>  <Synthesis_Level>  (217) 
B

>  <Parent_Tanimoto_r3>  (217) 
0.6195652173913043

>  <Max_Train_Tanimoto_r3>  (217) 
0.6195652173913043

>  <Risk_Flags>  (217) 
large structural change from parent; candidate may be outside strict in-domain threshold

$$$$
CAND_R2_218 | DOPO-PPO-OH-methyl
     RDKit          2D

 57 65  0  0  0  0  0  0  0  0999 V2000
    3.6152  -20.1464    0.0000 C   0  0  0  0  0  0  0  0  0  0  0  0
    3.3547  -18.6692    0.0000 O   0  0  0  0  0  0  0  0  0  0  0  0
    1.9452  -18.1562    0.0000 C   0  0  0  0  0  0  0  0  0  0  0  0
    1.6847  -16.6790    0.0000 C   0  0  0  0  0  0  0  0  0  0  0  0
    0.2752  -16.1660    0.0000 C   0  0  0  0  0  0  0  0  0  0  0  0
    0.0147  -14.6887    0.0000 C   0  0  0  0  0  0  0  0  0  0  0  0
    1.1638  -13.7246    0.0000 C   0  0  0  0  0  0  0  0  0  0  0  0
    0.9033  -12.2474    0.0000 O   0  0  0  0  0  0  0  0  0  0  0  0
    2.0524  -11.2832    0.0000 P   0  0  0  0  0  0  0  0  0  0  0  0
    3.0165  -12.4322    0.0000 O   0  0  0  0  0  0  0  0  0  0  0  0
    3.2014  -10.3190    0.0000 O   0  0  0  0  0  0  0  0  0  0  0  0
    4.6110  -10.8320    0.0000 C   0  0  0  0  0  0  0  0  0  0  0  0
    5.7600   -9.8678    0.0000 C   0  0  0  0  0  0  0  0  0  0  0  0
    7.1696  -10.3809    0.0000 C   0  0  0  0  0  0  0  0  0  0  0  0
    7.4300  -11.8581    0.0000 C   0  0  0  0  0  0  0  0  0  0  0  0
    8.8396  -12.3711    0.0000 C   0  0  0  0  0  0  0  0  0  0  0  0
    9.9887  -11.4069    0.0000 O   0  0  0  0  0  0  0  0  0  0  0  0
    9.1001  -13.8483    0.0000 P   0  0  0  0  0  0  0  0  0  0  0  0
    7.6001  -13.8483    0.0000 O   0  0  0  0  0  0  0  0  0  0  0  0
   10.5096  -13.3353    0.0000 O   0  0  0  0  0  0  0  0  0  0  0  0
   11.6587  -14.2995    0.0000 C   0  0  0  0  0  0  0  0  0  0  0  0
   13.0682  -13.7864    0.0000 C   0  0  0  0  0  0  0  0  0  0  0  0
   14.2173  -14.7506    0.0000 C   0  0  0  0  0  0  0  0  0  0  0  0
   13.9568  -16.2278    0.0000 C   0  0  0  0  0  0  0  0  0  0  0  0
   12.5473  -16.7409    0.0000 C   0  0  0  0  0  0  0  0  0  0  0  0
   11.3982  -15.7767    0.0000 C   0  0  0  0  0  0  0  0  0  0  0  0
    9.9887  -16.2897    0.0000 C   0  0  0  0  0  0  0  0  0  0  0  0
    9.7282  -17.7669    0.0000 C   0  0  0  0  0  0  0  0  0  0  0  0
    8.3186  -18.2800    0.0000 C   0  0  0  0  0  0  0  0  0  0  0  0
    7.1696  -17.3158    0.0000 C   0  0  0  0  0  0  0  0  0  0  0  0
    7.4300  -15.8386    0.0000 C   0  0  0  0  0  0  0  0  0  0  0  0
    8.8396  -15.3255    0.0000 C   0  0  0  0  0  0  0  0  0  0  0  0
    6.2810  -12.8223    0.0000 C   0  0  0  0  0  0  0  0  0  0  0  0
    4.8714  -12.3092    0.0000 C   0  0  0  0  0  0  0  0  0  0  0  0
    1.0882  -10.1341    0.0000 C   0  0  0  0  0  0  0  0  0  0  0  0
    1.6012   -8.7246    0.0000 C   0  0  0  0  0  0  0  0  0  0  0  0
    0.6370   -7.5755    0.0000 C   0  0  0  0  0  0  0  0  0  0  0  0
   -0.8402   -7.8360    0.0000 C   0  0  0  0  0  0  0  0  0  0  0  0
   -1.3532   -9.2455    0.0000 C   0  0  0  0  0  0  0  0  0  0  0  0
   -0.3890  -10.3946    0.0000 C   0  0  0  0  0  0  0  0  0  0  0  0
    2.5733  -14.2376    0.0000 C   0  0  0  0  0  0  0  0  0  0  0  0
    2.8338  -15.7148    0.0000 C   0  0  0  0  0  0  0  0  0  0  0  0
    0.7961  -19.1204    0.0000 P   0  0  0  0  0  0  0  0  0  0  0  0
    0.0461  -17.8213    0.0000 O   0  0  0  0  0  0  0  0  0  0  0  0
    1.9452  -20.0846    0.0000 O   0  0  0  0  0  0  0  0  0  0  0  0
    1.6847  -21.5618    0.0000 C   0  0  0  0  0  0  0  0  0  0  0  0
    2.8338  -22.5260    0.0000 C   0  0  0  0  0  0  0  0  0  0  0  0
    2.5733  -24.0032    0.0000 C   0  0  0  0  0  0  0  0  0  0  0  0
    1.1638  -24.5162    0.0000 C   0  0  0  0  0  0  0  0  0  0  0  0
    0.0147  -23.5520    0.0000 C   0  0  0  0  0  0  0  0  0  0  0  0
    0.2752  -22.0748    0.0000 C   0  0  0  0  0  0  0  0  0  0  0  0
   -0.8739  -21.1106    0.0000 C   0  0  0  0  0  0  0  0  0  0  0  0
   -2.2834  -21.6237    0.0000 C   0  0  0  0  0  0  0  0  0  0  0  0
   -3.4325  -20.6595    0.0000 C   0  0  0  0  0  0  0  0  0  0  0  0
   -3.1720  -19.1823    0.0000 C   0  0  0  0  0  0  0  0  0  0  0  0
   -1.7625  -18.6692    0.0000 C   0  0  0  0  0  0  0  0  0  0  0  0
   -0.6134  -19.6334    0.0000 C   0  0  0  0  0  0  0  0  0  0  0  0
  1  2  1  0
  2  3  1  0
  3  4  1  0
  4  5  2  0
  5  6  1  0
  6  7  2  0
  7  8  1  0
  8  9  1  0
  9 10  2  0
  9 11  1  0
 11 12  1  0
 12 13  2  0
 13 14  1  0
 14 15  2  0
 15 16  1  0
 16 17  1  0
 16 18  1  0
 18 19  2  0
 18 20  1  0
 20 21  1  0
 21 22  2  0
 22 23  1  0
 23 24  2  0
 24 25  1  0
 25 26  2  0
 26 27  1  0
 27 28  2  0
 28 29  1  0
 29 30  2  0
 30 31  1  0
 31 32  2  0
 15 33  1  0
 33 34  2  0
  9 35  1  0
 35 36  2  0
 36 37  1  0
 37 38  2  0
 38 39  1  0
 39 40  2  0
  7 41  1  0
 41 42  2  0
  3 43  1  0
 43 44  2  0
 43 45  1  0
 45 46  1  0
 46 47  2  0
 47 48  1  0
 48 49  2  0
 49 50  1  0
 50 51  2  0
 51 52  1  0
 52 53  2  0
 53 54  1  0
 54 55  2  0
 55 56  1  0
 56 57  2  0
 42  4  1  0
 57 43  1  0
 34 12  1  0
 40 35  1  0
 51 46  1  0
 57 52  1  0
 32 18  1  0
 26 21  1  0
 32 27  1  0
M  END
>  <Candidate_ID>  (218) 
CAND_R2_218

>  <Candidate_Name>  (218) 
DOPO-PPO-OH-methyl

>  <Parent_Seed_ID>  (218) 
TRAIN_080

>  <Parent_Name>  (218) 
DOPO-PPO

>  <Transformation_Code>  (218) 
OH_methyl

>  <Design_Family>  (218) 
P-only

>  <Preparation_Type>  (218) 
Additive

>  <Synthesis_Level>  (218) 
B

>  <Parent_Tanimoto_r3>  (218) 
0.8414634146341463

>  <Max_Train_Tanimoto_r3>  (218) 
0.8414634146341463

>  <Risk_Flags>  (218) 
none

$$$$
CAND_R2_219 | DOPO-PPO-OH-methyl-all
     RDKit          2D

 58 66  0  0  0  0  0  0  0  0999 V2000
   -6.4049   -8.2050    0.0000 C   0  0  0  0  0  0  0  0  0  0  0  0
   -4.9953   -8.7180    0.0000 O   0  0  0  0  0  0  0  0  0  0  0  0
   -4.7349  -10.1952    0.0000 C   0  0  0  0  0  0  0  0  0  0  0  0
   -3.3253  -10.7083    0.0000 C   0  0  0  0  0  0  0  0  0  0  0  0
   -3.0648  -12.1855    0.0000 C   0  0  0  0  0  0  0  0  0  0  0  0
   -1.6553  -12.6985    0.0000 C   0  0  0  0  0  0  0  0  0  0  0  0
   -0.5062  -11.7343    0.0000 C   0  0  0  0  0  0  0  0  0  0  0  0
    0.9033  -12.2474    0.0000 O   0  0  0  0  0  0  0  0  0  0  0  0
    2.0524  -11.2832    0.0000 P   0  0  0  0  0  0  0  0  0  0  0  0
    1.0882  -10.1341    0.0000 O   0  0  0  0  0  0  0  0  0  0  0  0
    3.2014  -10.3190    0.0000 O   0  0  0  0  0  0  0  0  0  0  0  0
    2.9410   -8.8418    0.0000 C   0  0  0  0  0  0  0  0  0  0  0  0
    4.0900   -7.8776    0.0000 C   0  0  0  0  0  0  0  0  0  0  0  0
    3.8296   -6.4004    0.0000 C   0  0  0  0  0  0  0  0  0  0  0  0
    2.4200   -5.8874    0.0000 C   0  0  0  0  0  0  0  0  0  0  0  0
    2.1595   -4.4101    0.0000 C   0  0  0  0  0  0  0  0  0  0  0  0
    3.3086   -3.4460    0.0000 O   0  0  0  0  0  0  0  0  0  0  0  0
    4.7181   -3.9590    0.0000 C   0  0  0  0  0  0  0  0  0  0  0  0
    0.7500   -3.8971    0.0000 P   0  0  0  0  0  0  0  0  0  0  0  0
    0.4895   -5.3743    0.0000 O   0  0  0  0  0  0  0  0  0  0  0  0
    1.5000   -2.5981    0.0000 O   0  0  0  0  0  0  0  0  0  0  0  0
    0.7500   -1.2990    0.0000 C   0  0  0  0  0  0  0  0  0  0  0  0
    1.5000    0.0000    0.0000 C   0  0  0  0  0  0  0  0  0  0  0  0
    0.7500    1.2990    0.0000 C   0  0  0  0  0  0  0  0  0  0  0  0
   -0.7500    1.2990    0.0000 C   0  0  0  0  0  0  0  0  0  0  0  0
   -1.5000    0.0000    0.0000 C   0  0  0  0  0  0  0  0  0  0  0  0
   -0.7500   -1.2990    0.0000 C   0  0  0  0  0  0  0  0  0  0  0  0
   -1.5000   -2.5981    0.0000 C   0  0  0  0  0  0  0  0  0  0  0  0
   -3.0000   -2.5981    0.0000 C   0  0  0  0  0  0  0  0  0  0  0  0
   -3.7500   -3.8971    0.0000 C   0  0  0  0  0  0  0  0  0  0  0  0
   -3.0000   -5.1962    0.0000 C   0  0  0  0  0  0  0  0  0  0  0  0
   -1.5000   -5.1962    0.0000 C   0  0  0  0  0  0  0  0  0  0  0  0
   -0.7500   -3.8971    0.0000 C   0  0  0  0  0  0  0  0  0  0  0  0
    1.2709   -6.8515    0.0000 C   0  0  0  0  0  0  0  0  0  0  0  0
    1.5314   -8.3287    0.0000 C   0  0  0  0  0  0  0  0  0  0  0  0
    3.0165  -12.4322    0.0000 C   0  0  0  0  0  0  0  0  0  0  0  0
    2.5035  -13.8418    0.0000 C   0  0  0  0  0  0  0  0  0  0  0  0
    3.4677  -14.9908    0.0000 C   0  0  0  0  0  0  0  0  0  0  0  0
    4.9449  -14.7304    0.0000 C   0  0  0  0  0  0  0  0  0  0  0  0
    5.4579  -13.3208    0.0000 C   0  0  0  0  0  0  0  0  0  0  0  0
    4.4938  -12.1718    0.0000 C   0  0  0  0  0  0  0  0  0  0  0  0
   -0.7667  -10.2571    0.0000 C   0  0  0  0  0  0  0  0  0  0  0  0
   -2.1763   -9.7441    0.0000 C   0  0  0  0  0  0  0  0  0  0  0  0
   -5.8839  -11.1594    0.0000 P   0  0  0  0  0  0  0  0  0  0  0  0
   -4.7349  -12.1236    0.0000 O   0  0  0  0  0  0  0  0  0  0  0  0
   -6.6339   -9.8604    0.0000 O   0  0  0  0  0  0  0  0  0  0  0  0
   -8.1339   -9.8604    0.0000 C   0  0  0  0  0  0  0  0  0  0  0  0
   -8.8839   -8.5613    0.0000 C   0  0  0  0  0  0  0  0  0  0  0  0
  -10.3839   -8.5613    0.0000 C   0  0  0  0  0  0  0  0  0  0  0  0
  -11.1339   -9.8604    0.0000 C   0  0  0  0  0  0  0  0  0  0  0  0
  -10.3839  -11.1594    0.0000 C   0  0  0  0  0  0  0  0  0  0  0  0
   -8.8839  -11.1594    0.0000 C   0  0  0  0  0  0  0  0  0  0  0  0
   -8.1339  -12.4585    0.0000 C   0  0  0  0  0  0  0  0  0  0  0  0
   -8.8839  -13.7575    0.0000 C   0  0  0  0  0  0  0  0  0  0  0  0
   -8.1339  -15.0565    0.0000 C   0  0  0  0  0  0  0  0  0  0  0  0
   -6.6339  -15.0565    0.0000 C   0  0  0  0  0  0  0  0  0  0  0  0
   -5.8839  -13.7575    0.0000 C   0  0  0  0  0  0  0  0  0  0  0  0
   -6.6339  -12.4585    0.0000 C   0  0  0  0  0  0  0  0  0  0  0  0
  1  2  1  0
  2  3  1  0
  3  4  1  0
  4  5  2  0
  5  6  1  0
  6  7  2  0
  7  8  1  0
  8  9  1  0
  9 10  2  0
  9 11  1  0
 11 12  1  0
 12 13  2  0
 13 14  1  0
 14 15  2  0
 15 16  1  0
 16 17  1  0
 17 18  1  0
 16 19  1  0
 19 20  2  0
 19 21  1  0
 21 22  1  0
 22 23  2  0
 23 24  1  0
 24 25  2  0
 25 26  1  0
 26 27  2  0
 27 28  1  0
 28 29  2  0
 29 30  1  0
 30 31  2  0
 31 32  1  0
 32 33  2  0
 15 34  1  0
 34 35  2  0
  9 36  1  0
 36 37  2  0
 37 38  1  0
 38 39  2  0
 39 40  1  0
 40 41  2  0
  7 42  1  0
 42 43  2  0
  3 44  1  0
 44 45  2  0
 44 46  1  0
 46 47  1  0
 47 48  2  0
 48 49  1  0
 49 50  2  0
 50 51  1  0
 51 52  2  0
 52 53  1  0
 53 54  2  0
 54 55  1  0
 55 56  2  0
 56 57  1  0
 57 58  2  0
 43  4  1  0
 58 44  1  0
 35 12  1  0
 41 36  1  0
 52 47  1  0
 58 53  1  0
 33 19  1  0
 27 22  1  0
 33 28  1  0
M  END
>  <Candidate_ID>  (219) 
CAND_R2_219

>  <Candidate_Name>  (219) 
DOPO-PPO-OH-methyl-all

>  <Parent_Seed_ID>  (219) 
TRAIN_080

>  <Parent_Name>  (219) 
DOPO-PPO

>  <Transformation_Code>  (219) 
OH_methyl_all

>  <Design_Family>  (219) 
P-only

>  <Preparation_Type>  (219) 
Additive

>  <Synthesis_Level>  (219) 
B

>  <Parent_Tanimoto_r3>  (219) 
0.6951219512195121

>  <Max_Train_Tanimoto_r3>  (219) 
0.6951219512195121

>  <Risk_Flags>  (219) 
candidate may be outside strict in-domain threshold

$$$$
CAND_R2_220 | DOPO-PPO-OH-acetyl
     RDKit          2D

 59 67  0  0  0  0  0  0  0  0999 V2000
    5.0247  -20.6595    0.0000 C   0  0  0  0  0  0  0  0  0  0  0  0
    3.6152  -20.1464    0.0000 C   0  0  0  0  0  0  0  0  0  0  0  0
    2.4661  -21.1106    0.0000 O   0  0  0  0  0  0  0  0  0  0  0  0
    3.3547  -18.6692    0.0000 O   0  0  0  0  0  0  0  0  0  0  0  0
    1.9452  -18.1562    0.0000 C   0  0  0  0  0  0  0  0  0  0  0  0
    1.6847  -16.6790    0.0000 C   0  0  0  0  0  0  0  0  0  0  0  0
    0.2752  -16.1660    0.0000 C   0  0  0  0  0  0  0  0  0  0  0  0
    0.0147  -14.6887    0.0000 C   0  0  0  0  0  0  0  0  0  0  0  0
    1.1638  -13.7246    0.0000 C   0  0  0  0  0  0  0  0  0  0  0  0
    0.9033  -12.2474    0.0000 O   0  0  0  0  0  0  0  0  0  0  0  0
    2.0524  -11.2832    0.0000 P   0  0  0  0  0  0  0  0  0  0  0  0
    3.0165  -12.4322    0.0000 O   0  0  0  0  0  0  0  0  0  0  0  0
    3.2014  -10.3190    0.0000 O   0  0  0  0  0  0  0  0  0  0  0  0
    4.6110  -10.8320    0.0000 C   0  0  0  0  0  0  0  0  0  0  0  0
    5.7600   -9.8678    0.0000 C   0  0  0  0  0  0  0  0  0  0  0  0
    7.1696  -10.3809    0.0000 C   0  0  0  0  0  0  0  0  0  0  0  0
    7.4300  -11.8581    0.0000 C   0  0  0  0  0  0  0  0  0  0  0  0
    8.8396  -12.3711    0.0000 C   0  0  0  0  0  0  0  0  0  0  0  0
    9.9887  -11.4069    0.0000 O   0  0  0  0  0  0  0  0  0  0  0  0
    9.1001  -13.8483    0.0000 P   0  0  0  0  0  0  0  0  0  0  0  0
    7.6001  -13.8483    0.0000 O   0  0  0  0  0  0  0  0  0  0  0  0
   10.5096  -13.3353    0.0000 O   0  0  0  0  0  0  0  0  0  0  0  0
   11.6587  -14.2995    0.0000 C   0  0  0  0  0  0  0  0  0  0  0  0
   13.0682  -13.7864    0.0000 C   0  0  0  0  0  0  0  0  0  0  0  0
   14.2173  -14.7506    0.0000 C   0  0  0  0  0  0  0  0  0  0  0  0
   13.9568  -16.2278    0.0000 C   0  0  0  0  0  0  0  0  0  0  0  0
   12.5473  -16.7409    0.0000 C   0  0  0  0  0  0  0  0  0  0  0  0
   11.3982  -15.7767    0.0000 C   0  0  0  0  0  0  0  0  0  0  0  0
    9.9887  -16.2897    0.0000 C   0  0  0  0  0  0  0  0  0  0  0  0
    9.7282  -17.7669    0.0000 C   0  0  0  0  0  0  0  0  0  0  0  0
    8.3186  -18.2800    0.0000 C   0  0  0  0  0  0  0  0  0  0  0  0
    7.1696  -17.3158    0.0000 C   0  0  0  0  0  0  0  0  0  0  0  0
    7.4300  -15.8386    0.0000 C   0  0  0  0  0  0  0  0  0  0  0  0
    8.8396  -15.3255    0.0000 C   0  0  0  0  0  0  0  0  0  0  0  0
    6.2810  -12.8223    0.0000 C   0  0  0  0  0  0  0  0  0  0  0  0
    4.8714  -12.3092    0.0000 C   0  0  0  0  0  0  0  0  0  0  0  0
    1.0882  -10.1341    0.0000 C   0  0  0  0  0  0  0  0  0  0  0  0
    1.6012   -8.7246    0.0000 C   0  0  0  0  0  0  0  0  0  0  0  0
    0.6370   -7.5755    0.0000 C   0  0  0  0  0  0  0  0  0  0  0  0
   -0.8402   -7.8360    0.0000 C   0  0  0  0  0  0  0  0  0  0  0  0
   -1.3532   -9.2455    0.0000 C   0  0  0  0  0  0  0  0  0  0  0  0
   -0.3890  -10.3946    0.0000 C   0  0  0  0  0  0  0  0  0  0  0  0
    2.5733  -14.2376    0.0000 C   0  0  0  0  0  0  0  0  0  0  0  0
    2.8338  -15.7148    0.0000 C   0  0  0  0  0  0  0  0  0  0  0  0
    0.7961  -19.1204    0.0000 P   0  0  0  0  0  0  0  0  0  0  0  0
    0.0461  -17.8213    0.0000 O   0  0  0  0  0  0  0  0  0  0  0  0
    1.9452  -20.0846    0.0000 O   0  0  0  0  0  0  0  0  0  0  0  0
    1.6847  -21.5618    0.0000 C   0  0  0  0  0  0  0  0  0  0  0  0
    2.8338  -22.5260    0.0000 C   0  0  0  0  0  0  0  0  0  0  0  0
    2.5733  -24.0032    0.0000 C   0  0  0  0  0  0  0  0  0  0  0  0
    1.1638  -24.5162    0.0000 C   0  0  0  0  0  0  0  0  0  0  0  0
    0.0147  -23.5520    0.0000 C   0  0  0  0  0  0  0  0  0  0  0  0
    0.2752  -22.0748    0.0000 C   0  0  0  0  0  0  0  0  0  0  0  0
   -0.8739  -21.1106    0.0000 C   0  0  0  0  0  0  0  0  0  0  0  0
   -2.2834  -21.6237    0.0000 C   0  0  0  0  0  0  0  0  0  0  0  0
   -3.4325  -20.6595    0.0000 C   0  0  0  0  0  0  0  0  0  0  0  0
   -3.1720  -19.1823    0.0000 C   0  0  0  0  0  0  0  0  0  0  0  0
   -1.7625  -18.6692    0.0000 C   0  0  0  0  0  0  0  0  0  0  0  0
   -0.6134  -19.6334    0.0000 C   0  0  0  0  0  0  0  0  0  0  0  0
  1  2  1  0
  2  3  2  0
  2  4  1  0
  4  5  1  0
  5  6  1  0
  6  7  2  0
  7  8  1  0
  8  9  2  0
  9 10  1  0
 10 11  1  0
 11 12  2  0
 11 13  1  0
 13 14  1  0
 14 15  2  0
 15 16  1  0
 16 17  2  0
 17 18  1  0
 18 19  1  0
 18 20  1  0
 20 21  2  0
 20 22  1  0
 22 23  1  0
 23 24  2  0
 24 25  1  0
 25 26  2  0
 26 27  1  0
 27 28  2  0
 28 29  1  0
 29 30  2  0
 30 31  1  0
 31 32  2  0
 32 33  1  0
 33 34  2  0
 17 35  1  0
 35 36  2  0
 11 37  1  0
 37 38  2  0
 38 39  1  0
 39 40  2  0
 40 41  1  0
 41 42  2  0
  9 43  1  0
 43 44  2  0
  5 45  1  0
 45 46  2  0
 45 47  1  0
 47 48  1  0
 48 49  2  0
 49 50  1  0
 50 51  2  0
 51 52  1  0
 52 53  2  0
 53 54  1  0
 54 55  2  0
 55 56  1  0
 56 57  2  0
 57 58  1  0
 58 59  2  0
 44  6  1  0
 59 45  1  0
 36 14  1  0
 42 37  1  0
 53 48  1  0
 59 54  1  0
 34 20  1  0
 28 23  1  0
 34 29  1  0
M  END
>  <Candidate_ID>  (220) 
CAND_R2_220

>  <Candidate_Name>  (220) 
DOPO-PPO-OH-acetyl

>  <Parent_Seed_ID>  (220) 
TRAIN_080

>  <Parent_Name>  (220) 
DOPO-PPO

>  <Transformation_Code>  (220) 
OH_acetyl

>  <Design_Family>  (220) 
P-only

>  <Preparation_Type>  (220) 
Additive

>  <Synthesis_Level>  (220) 
B

>  <Parent_Tanimoto_r3>  (220) 
0.8117647058823529

>  <Max_Train_Tanimoto_r3>  (220) 
0.8117647058823529

>  <Risk_Flags>  (220) 
none

$$$$
CAND_R2_221 | DOPO-PPO-OH-acetyl-all
     RDKit          2D

 62 70  0  0  0  0  0  0  0  0999 V2000
   -6.6653   -6.7278    0.0000 C   0  0  0  0  0  0  0  0  0  0  0  0
   -6.4049   -8.2050    0.0000 C   0  0  0  0  0  0  0  0  0  0  0  0
   -7.5539   -9.1692    0.0000 O   0  0  0  0  0  0  0  0  0  0  0  0
   -4.9953   -8.7180    0.0000 O   0  0  0  0  0  0  0  0  0  0  0  0
   -4.7349  -10.1952    0.0000 C   0  0  0  0  0  0  0  0  0  0  0  0
   -3.3253  -10.7083    0.0000 C   0  0  0  0  0  0  0  0  0  0  0  0
   -3.0648  -12.1855    0.0000 C   0  0  0  0  0  0  0  0  0  0  0  0
   -1.6553  -12.6985    0.0000 C   0  0  0  0  0  0  0  0  0  0  0  0
   -0.5062  -11.7343    0.0000 C   0  0  0  0  0  0  0  0  0  0  0  0
    0.9033  -12.2474    0.0000 O   0  0  0  0  0  0  0  0  0  0  0  0
    2.0524  -11.2832    0.0000 P   0  0  0  0  0  0  0  0  0  0  0  0
    1.0882  -10.1341    0.0000 O   0  0  0  0  0  0  0  0  0  0  0  0
    3.2014  -10.3190    0.0000 O   0  0  0  0  0  0  0  0  0  0  0  0
    2.9410   -8.8418    0.0000 C   0  0  0  0  0  0  0  0  0  0  0  0
    4.0900   -7.8776    0.0000 C   0  0  0  0  0  0  0  0  0  0  0  0
    3.8296   -6.4004    0.0000 C   0  0  0  0  0  0  0  0  0  0  0  0
    2.4200   -5.8874    0.0000 C   0  0  0  0  0  0  0  0  0  0  0  0
    2.1595   -4.4101    0.0000 C   0  0  0  0  0  0  0  0  0  0  0  0
    3.3086   -3.4460    0.0000 O   0  0  0  0  0  0  0  0  0  0  0  0
    4.7181   -3.9590    0.0000 C   0  0  0  0  0  0  0  0  0  0  0  0
    5.8672   -2.9948    0.0000 C   0  0  0  0  0  0  0  0  0  0  0  0
    4.9786   -5.4362    0.0000 O   0  0  0  0  0  0  0  0  0  0  0  0
    0.7500   -3.8971    0.0000 P   0  0  0  0  0  0  0  0  0  0  0  0
    0.4895   -5.3743    0.0000 O   0  0  0  0  0  0  0  0  0  0  0  0
    1.5000   -2.5981    0.0000 O   0  0  0  0  0  0  0  0  0  0  0  0
    0.7500   -1.2990    0.0000 C   0  0  0  0  0  0  0  0  0  0  0  0
    1.5000    0.0000    0.0000 C   0  0  0  0  0  0  0  0  0  0  0  0
    0.7500    1.2990    0.0000 C   0  0  0  0  0  0  0  0  0  0  0  0
   -0.7500    1.2990    0.0000 C   0  0  0  0  0  0  0  0  0  0  0  0
   -1.5000    0.0000    0.0000 C   0  0  0  0  0  0  0  0  0  0  0  0
   -0.7500   -1.2990    0.0000 C   0  0  0  0  0  0  0  0  0  0  0  0
   -1.5000   -2.5981    0.0000 C   0  0  0  0  0  0  0  0  0  0  0  0
   -3.0000   -2.5981    0.0000 C   0  0  0  0  0  0  0  0  0  0  0  0
   -3.7500   -3.8971    0.0000 C   0  0  0  0  0  0  0  0  0  0  0  0
   -3.0000   -5.1962    0.0000 C   0  0  0  0  0  0  0  0  0  0  0  0
   -1.5000   -5.1962    0.0000 C   0  0  0  0  0  0  0  0  0  0  0  0
   -0.7500   -3.8971    0.0000 C   0  0  0  0  0  0  0  0  0  0  0  0
    1.2709   -6.8515    0.0000 C   0  0  0  0  0  0  0  0  0  0  0  0
    1.5314   -8.3287    0.0000 C   0  0  0  0  0  0  0  0  0  0  0  0
    3.0165  -12.4322    0.0000 C   0  0  0  0  0  0  0  0  0  0  0  0
    2.5035  -13.8418    0.0000 C   0  0  0  0  0  0  0  0  0  0  0  0
    3.4677  -14.9908    0.0000 C   0  0  0  0  0  0  0  0  0  0  0  0
    4.9449  -14.7304    0.0000 C   0  0  0  0  0  0  0  0  0  0  0  0
    5.4579  -13.3208    0.0000 C   0  0  0  0  0  0  0  0  0  0  0  0
    4.4938  -12.1718    0.0000 C   0  0  0  0  0  0  0  0  0  0  0  0
   -0.7667  -10.2571    0.0000 C   0  0  0  0  0  0  0  0  0  0  0  0
   -2.1763   -9.7441    0.0000 C   0  0  0  0  0  0  0  0  0  0  0  0
   -5.8839  -11.1594    0.0000 P   0  0  0  0  0  0  0  0  0  0  0  0
   -4.7349  -12.1236    0.0000 O   0  0  0  0  0  0  0  0  0  0  0  0
   -6.6339   -9.8604    0.0000 O   0  0  0  0  0  0  0  0  0  0  0  0
   -8.1339   -9.8604    0.0000 C   0  0  0  0  0  0  0  0  0  0  0  0
   -8.8839   -8.5613    0.0000 C   0  0  0  0  0  0  0  0  0  0  0  0
  -10.3839   -8.5613    0.0000 C   0  0  0  0  0  0  0  0  0  0  0  0
  -11.1339   -9.8604    0.0000 C   0  0  0  0  0  0  0  0  0  0  0  0
  -10.3839  -11.1594    0.0000 C   0  0  0  0  0  0  0  0  0  0  0  0
   -8.8839  -11.1594    0.0000 C   0  0  0  0  0  0  0  0  0  0  0  0
   -8.1339  -12.4585    0.0000 C   0  0  0  0  0  0  0  0  0  0  0  0
   -8.8839  -13.7575    0.0000 C   0  0  0  0  0  0  0  0  0  0  0  0
   -8.1339  -15.0565    0.0000 C   0  0  0  0  0  0  0  0  0  0  0  0
   -6.6339  -15.0565    0.0000 C   0  0  0  0  0  0  0  0  0  0  0  0
   -5.8839  -13.7575    0.0000 C   0  0  0  0  0  0  0  0  0  0  0  0
   -6.6339  -12.4585    0.0000 C   0  0  0  0  0  0  0  0  0  0  0  0
  1  2  1  0
  2  3  2  0
  2  4  1  0
  4  5  1  0
  5  6  1  0
  6  7  2  0
  7  8  1  0
  8  9  2  0
  9 10  1  0
 10 11  1  0
 11 12  2  0
 11 13  1  0
 13 14  1  0
 14 15  2  0
 15 16  1  0
 16 17  2  0
 17 18  1  0
 18 19  1  0
 19 20  1  0
 20 21  1  0
 20 22  2  0
 18 23  1  0
 23 24  2  0
 23 25  1  0
 25 26  1  0
 26 27  2  0
 27 28  1  0
 28 29  2  0
 29 30  1  0
 30 31  2  0
 31 32  1  0
 32 33  2  0
 33 34  1  0
 34 35  2  0
 35 36  1  0
 36 37  2  0
 17 38  1  0
 38 39  2  0
 11 40  1  0
 40 41  2  0
 41 42  1  0
 42 43  2  0
 43 44  1  0
 44 45  2  0
  9 46  1  0
 46 47  2  0
  5 48  1  0
 48 49  2  0
 48 50  1  0
 50 51  1  0
 51 52  2  0
 52 53  1  0
 53 54  2  0
 54 55  1  0
 55 56  2  0
 56 57  1  0
 57 58  2  0
 58 59  1  0
 59 60  2  0
 60 61  1  0
 61 62  2  0
 47  6  1  0
 62 48  1  0
 39 14  1  0
 45 40  1  0
 56 51  1  0
 62 57  1  0
 37 23  1  0
 31 26  1  0
 37 32  1  0
M  END
>  <Candidate_ID>  (221) 
CAND_R2_221

>  <Candidate_Name>  (221) 
DOPO-PPO-OH-acetyl-all

>  <Parent_Seed_ID>  (221) 
TRAIN_080

>  <Parent_Name>  (221) 
DOPO-PPO

>  <Transformation_Code>  (221) 
OH_acetyl_all

>  <Design_Family>  (221) 
P-only

>  <Preparation_Type>  (221) 
Additive

>  <Synthesis_Level>  (221) 
B

>  <Parent_Tanimoto_r3>  (221) 
0.6941176470588235

>  <Max_Train_Tanimoto_r3>  (221) 
0.6941176470588235

>  <Risk_Flags>  (221) 
candidate may be outside strict in-domain threshold

$$$$
CAND_R2_222 | DOPO-PPO-OH-allyl
     RDKit          2D

 59 67  0  0  0  0  0  0  0  0999 V2000
    5.2852  -22.1367    0.0000 C   0  0  0  0  0  0  0  0  0  0  0  0
    5.0247  -20.6595    0.0000 C   0  0  0  0  0  0  0  0  0  0  0  0
    3.6152  -20.1464    0.0000 C   0  0  0  0  0  0  0  0  0  0  0  0
    3.3547  -18.6692    0.0000 O   0  0  0  0  0  0  0  0  0  0  0  0
    1.9452  -18.1562    0.0000 C   0  0  0  0  0  0  0  0  0  0  0  0
    1.6847  -16.6790    0.0000 C   0  0  0  0  0  0  0  0  0  0  0  0
    0.2752  -16.1660    0.0000 C   0  0  0  0  0  0  0  0  0  0  0  0
    0.0147  -14.6887    0.0000 C   0  0  0  0  0  0  0  0  0  0  0  0
    1.1638  -13.7246    0.0000 C   0  0  0  0  0  0  0  0  0  0  0  0
    0.9033  -12.2474    0.0000 O   0  0  0  0  0  0  0  0  0  0  0  0
    2.0524  -11.2832    0.0000 P   0  0  0  0  0  0  0  0  0  0  0  0
    3.0165  -12.4322    0.0000 O   0  0  0  0  0  0  0  0  0  0  0  0
    3.2014  -10.3190    0.0000 O   0  0  0  0  0  0  0  0  0  0  0  0
    4.6110  -10.8320    0.0000 C   0  0  0  0  0  0  0  0  0  0  0  0
    5.7600   -9.8678    0.0000 C   0  0  0  0  0  0  0  0  0  0  0  0
    7.1696  -10.3809    0.0000 C   0  0  0  0  0  0  0  0  0  0  0  0
    7.4300  -11.8581    0.0000 C   0  0  0  0  0  0  0  0  0  0  0  0
    8.8396  -12.3711    0.0000 C   0  0  0  0  0  0  0  0  0  0  0  0
    9.9887  -11.4069    0.0000 O   0  0  0  0  0  0  0  0  0  0  0  0
    9.1001  -13.8483    0.0000 P   0  0  0  0  0  0  0  0  0  0  0  0
    7.6001  -13.8483    0.0000 O   0  0  0  0  0  0  0  0  0  0  0  0
   10.5096  -13.3353    0.0000 O   0  0  0  0  0  0  0  0  0  0  0  0
   11.6587  -14.2995    0.0000 C   0  0  0  0  0  0  0  0  0  0  0  0
   13.0682  -13.7864    0.0000 C   0  0  0  0  0  0  0  0  0  0  0  0
   14.2173  -14.7506    0.0000 C   0  0  0  0  0  0  0  0  0  0  0  0
   13.9568  -16.2278    0.0000 C   0  0  0  0  0  0  0  0  0  0  0  0
   12.5473  -16.7409    0.0000 C   0  0  0  0  0  0  0  0  0  0  0  0
   11.3982  -15.7767    0.0000 C   0  0  0  0  0  0  0  0  0  0  0  0
    9.9887  -16.2897    0.0000 C   0  0  0  0  0  0  0  0  0  0  0  0
    9.7282  -17.7669    0.0000 C   0  0  0  0  0  0  0  0  0  0  0  0
    8.3186  -18.2800    0.0000 C   0  0  0  0  0  0  0  0  0  0  0  0
    7.1696  -17.3158    0.0000 C   0  0  0  0  0  0  0  0  0  0  0  0
    7.4300  -15.8386    0.0000 C   0  0  0  0  0  0  0  0  0  0  0  0
    8.8396  -15.3255    0.0000 C   0  0  0  0  0  0  0  0  0  0  0  0
    6.2810  -12.8223    0.0000 C   0  0  0  0  0  0  0  0  0  0  0  0
    4.8714  -12.3092    0.0000 C   0  0  0  0  0  0  0  0  0  0  0  0
    1.0882  -10.1341    0.0000 C   0  0  0  0  0  0  0  0  0  0  0  0
    1.6012   -8.7246    0.0000 C   0  0  0  0  0  0  0  0  0  0  0  0
    0.6370   -7.5755    0.0000 C   0  0  0  0  0  0  0  0  0  0  0  0
   -0.8402   -7.8360    0.0000 C   0  0  0  0  0  0  0  0  0  0  0  0
   -1.3532   -9.2455    0.0000 C   0  0  0  0  0  0  0  0  0  0  0  0
   -0.3890  -10.3946    0.0000 C   0  0  0  0  0  0  0  0  0  0  0  0
    2.5733  -14.2376    0.0000 C   0  0  0  0  0  0  0  0  0  0  0  0
    2.8338  -15.7148    0.0000 C   0  0  0  0  0  0  0  0  0  0  0  0
    0.7961  -19.1204    0.0000 P   0  0  0  0  0  0  0  0  0  0  0  0
    0.0461  -17.8213    0.0000 O   0  0  0  0  0  0  0  0  0  0  0  0
    1.9452  -20.0846    0.0000 O   0  0  0  0  0  0  0  0  0  0  0  0
    1.6847  -21.5618    0.0000 C   0  0  0  0  0  0  0  0  0  0  0  0
    2.8338  -22.5260    0.0000 C   0  0  0  0  0  0  0  0  0  0  0  0
    2.5733  -24.0032    0.0000 C   0  0  0  0  0  0  0  0  0  0  0  0
    1.1638  -24.5162    0.0000 C   0  0  0  0  0  0  0  0  0  0  0  0
    0.0147  -23.5520    0.0000 C   0  0  0  0  0  0  0  0  0  0  0  0
    0.2752  -22.0748    0.0000 C   0  0  0  0  0  0  0  0  0  0  0  0
   -0.8739  -21.1106    0.0000 C   0  0  0  0  0  0  0  0  0  0  0  0
   -2.2834  -21.6237    0.0000 C   0  0  0  0  0  0  0  0  0  0  0  0
   -3.4325  -20.6595    0.0000 C   0  0  0  0  0  0  0  0  0  0  0  0
   -3.1720  -19.1823    0.0000 C   0  0  0  0  0  0  0  0  0  0  0  0
   -1.7625  -18.6692    0.0000 C   0  0  0  0  0  0  0  0  0  0  0  0
   -0.6134  -19.6334    0.0000 C   0  0  0  0  0  0  0  0  0  0  0  0
  1  2  2  0
  2  3  1  0
  3  4  1  0
  4  5  1  0
  5  6  1  0
  6  7  2  0
  7  8  1  0
  8  9  2  0
  9 10  1  0
 10 11  1  0
 11 12  2  0
 11 13  1  0
 13 14  1  0
 14 15  2  0
 15 16  1  0
 16 17  2  0
 17 18  1  0
 18 19  1  0
 18 20  1  0
 20 21  2  0
 20 22  1  0
 22 23  1  0
 23 24  2  0
 24 25  1  0
 25 26  2  0
 26 27  1  0
 27 28  2  0
 28 29  1  0
 29 30  2  0
 30 31  1  0
 31 32  2  0
 32 33  1  0
 33 34  2  0
 17 35  1  0
 35 36  2  0
 11 37  1  0
 37 38  2  0
 38 39  1  0
 39 40  2  0
 40 41  1  0
 41 42  2  0
  9 43  1  0
 43 44  2  0
  5 45  1  0
 45 46  2  0
 45 47  1  0
 47 48  1  0
 48 49  2  0
 49 50  1  0
 50 51  2  0
 51 52  1  0
 52 53  2  0
 53 54  1  0
 54 55  2  0
 55 56  1  0
 56 57  2  0
 57 58  1  0
 58 59  2  0
 44  6  1  0
 59 45  1  0
 36 14  1  0
 42 37  1  0
 53 48  1  0
 59 54  1  0
 34 20  1  0
 28 23  1  0
 34 29  1  0
M  END
>  <Candidate_ID>  (222) 
CAND_R2_222

>  <Candidate_Name>  (222) 
DOPO-PPO-OH-allyl

>  <Parent_Seed_ID>  (222) 
TRAIN_080

>  <Parent_Name>  (222) 
DOPO-PPO

>  <Transformation_Code>  (222) 
OH_allyl

>  <Design_Family>  (222) 
P-only

>  <Preparation_Type>  (222) 
Additive

>  <Synthesis_Level>  (222) 
B

>  <Parent_Tanimoto_r3>  (222) 
0.7582417582417582

>  <Max_Train_Tanimoto_r3>  (222) 
0.7582417582417582

>  <Risk_Flags>  (222) 
none

$$$$
CAND_R2_223 | DOPO-PPO-OH-allyl-all
     RDKit          2D

 62 70  0  0  0  0  0  0  0  0999 V2000
   -8.0749   -6.2147    0.0000 C   0  0  0  0  0  0  0  0  0  0  0  0
   -6.6653   -6.7278    0.0000 C   0  0  0  0  0  0  0  0  0  0  0  0
   -6.4049   -8.2050    0.0000 C   0  0  0  0  0  0  0  0  0  0  0  0
   -4.9953   -8.7180    0.0000 O   0  0  0  0  0  0  0  0  0  0  0  0
   -4.7349  -10.1952    0.0000 C   0  0  0  0  0  0  0  0  0  0  0  0
   -3.3253  -10.7083    0.0000 C   0  0  0  0  0  0  0  0  0  0  0  0
   -3.0648  -12.1855    0.0000 C   0  0  0  0  0  0  0  0  0  0  0  0
   -1.6553  -12.6985    0.0000 C   0  0  0  0  0  0  0  0  0  0  0  0
   -0.5062  -11.7343    0.0000 C   0  0  0  0  0  0  0  0  0  0  0  0
    0.9033  -12.2474    0.0000 O   0  0  0  0  0  0  0  0  0  0  0  0
    2.0524  -11.2832    0.0000 P   0  0  0  0  0  0  0  0  0  0  0  0
    1.0882  -10.1341    0.0000 O   0  0  0  0  0  0  0  0  0  0  0  0
    3.2014  -10.3190    0.0000 O   0  0  0  0  0  0  0  0  0  0  0  0
    2.9410   -8.8418    0.0000 C   0  0  0  0  0  0  0  0  0  0  0  0
    4.0900   -7.8776    0.0000 C   0  0  0  0  0  0  0  0  0  0  0  0
    3.8296   -6.4004    0.0000 C   0  0  0  0  0  0  0  0  0  0  0  0
    2.4200   -5.8874    0.0000 C   0  0  0  0  0  0  0  0  0  0  0  0
    2.1595   -4.4101    0.0000 C   0  0  0  0  0  0  0  0  0  0  0  0
    3.3086   -3.4460    0.0000 O   0  0  0  0  0  0  0  0  0  0  0  0
    4.7181   -3.9590    0.0000 C   0  0  0  0  0  0  0  0  0  0  0  0
    5.8672   -2.9948    0.0000 C   0  0  0  0  0  0  0  0  0  0  0  0
    7.2768   -3.5078    0.0000 C   0  0  0  0  0  0  0  0  0  0  0  0
    0.7500   -3.8971    0.0000 P   0  0  0  0  0  0  0  0  0  0  0  0
    0.4895   -5.3743    0.0000 O   0  0  0  0  0  0  0  0  0  0  0  0
    1.5000   -2.5981    0.0000 O   0  0  0  0  0  0  0  0  0  0  0  0
    0.7500   -1.2990    0.0000 C   0  0  0  0  0  0  0  0  0  0  0  0
    1.5000    0.0000    0.0000 C   0  0  0  0  0  0  0  0  0  0  0  0
    0.7500    1.2990    0.0000 C   0  0  0  0  0  0  0  0  0  0  0  0
   -0.7500    1.2990    0.0000 C   0  0  0  0  0  0  0  0  0  0  0  0
   -1.5000    0.0000    0.0000 C   0  0  0  0  0  0  0  0  0  0  0  0
   -0.7500   -1.2990    0.0000 C   0  0  0  0  0  0  0  0  0  0  0  0
   -1.5000   -2.5981    0.0000 C   0  0  0  0  0  0  0  0  0  0  0  0
   -3.0000   -2.5981    0.0000 C   0  0  0  0  0  0  0  0  0  0  0  0
   -3.7500   -3.8971    0.0000 C   0  0  0  0  0  0  0  0  0  0  0  0
   -3.0000   -5.1962    0.0000 C   0  0  0  0  0  0  0  0  0  0  0  0
   -1.5000   -5.1962    0.0000 C   0  0  0  0  0  0  0  0  0  0  0  0
   -0.7500   -3.8971    0.0000 C   0  0  0  0  0  0  0  0  0  0  0  0
    1.2709   -6.8515    0.0000 C   0  0  0  0  0  0  0  0  0  0  0  0
    1.5314   -8.3287    0.0000 C   0  0  0  0  0  0  0  0  0  0  0  0
    3.0165  -12.4322    0.0000 C   0  0  0  0  0  0  0  0  0  0  0  0
    2.5035  -13.8418    0.0000 C   0  0  0  0  0  0  0  0  0  0  0  0
    3.4677  -14.9908    0.0000 C   0  0  0  0  0  0  0  0  0  0  0  0
    4.9449  -14.7304    0.0000 C   0  0  0  0  0  0  0  0  0  0  0  0
    5.4579  -13.3208    0.0000 C   0  0  0  0  0  0  0  0  0  0  0  0
    4.4938  -12.1718    0.0000 C   0  0  0  0  0  0  0  0  0  0  0  0
   -0.7667  -10.2571    0.0000 C   0  0  0  0  0  0  0  0  0  0  0  0
   -2.1763   -9.7441    0.0000 C   0  0  0  0  0  0  0  0  0  0  0  0
   -5.8839  -11.1594    0.0000 P   0  0  0  0  0  0  0  0  0  0  0  0
   -4.7349  -12.1236    0.0000 O   0  0  0  0  0  0  0  0  0  0  0  0
   -6.6339   -9.8604    0.0000 O   0  0  0  0  0  0  0  0  0  0  0  0
   -8.1339   -9.8604    0.0000 C   0  0  0  0  0  0  0  0  0  0  0  0
   -8.8839   -8.5613    0.0000 C   0  0  0  0  0  0  0  0  0  0  0  0
  -10.3839   -8.5613    0.0000 C   0  0  0  0  0  0  0  0  0  0  0  0
  -11.1339   -9.8604    0.0000 C   0  0  0  0  0  0  0  0  0  0  0  0
  -10.3839  -11.1594    0.0000 C   0  0  0  0  0  0  0  0  0  0  0  0
   -8.8839  -11.1594    0.0000 C   0  0  0  0  0  0  0  0  0  0  0  0
   -8.1339  -12.4585    0.0000 C   0  0  0  0  0  0  0  0  0  0  0  0
   -8.8839  -13.7575    0.0000 C   0  0  0  0  0  0  0  0  0  0  0  0
   -8.1339  -15.0565    0.0000 C   0  0  0  0  0  0  0  0  0  0  0  0
   -6.6339  -15.0565    0.0000 C   0  0  0  0  0  0  0  0  0  0  0  0
   -5.8839  -13.7575    0.0000 C   0  0  0  0  0  0  0  0  0  0  0  0
   -6.6339  -12.4585    0.0000 C   0  0  0  0  0  0  0  0  0  0  0  0
  1  2  2  0
  2  3  1  0
  3  4  1  0
  4  5  1  0
  5  6  1  0
  6  7  2  0
  7  8  1  0
  8  9  2  0
  9 10  1  0
 10 11  1  0
 11 12  2  0
 11 13  1  0
 13 14  1  0
 14 15  2  0
 15 16  1  0
 16 17  2  0
 17 18  1  0
 18 19  1  0
 19 20  1  0
 20 21  1  0
 21 22  2  0
 18 23  1  0
 23 24  2  0
 23 25  1  0
 25 26  1  0
 26 27  2  0
 27 28  1  0
 28 29  2  0
 29 30  1  0
 30 31  2  0
 31 32  1  0
 32 33  2  0
 33 34  1  0
 34 35  2  0
 35 36  1  0
 36 37  2  0
 17 38  1  0
 38 39  2  0
 11 40  1  0
 40 41  2  0
 41 42  1  0
 42 43  2  0
 43 44  1  0
 44 45  2  0
  9 46  1  0
 46 47  2  0
  5 48  1  0
 48 49  2  0
 48 50  1  0
 50 51  1  0
 51 52  2  0
 52 53  1  0
 53 54  2  0
 54 55  1  0
 55 56  2  0
 56 57  1  0
 57 58  2  0
 58 59  1  0
 59 60  2  0
 60 61  1  0
 61 62  2  0
 47  6  1  0
 62 48  1  0
 39 14  1  0
 45 40  1  0
 56 51  1  0
 62 57  1  0
 37 23  1  0
 31 26  1  0
 37 32  1  0
M  END
>  <Candidate_ID>  (223) 
CAND_R2_223

>  <Candidate_Name>  (223) 
DOPO-PPO-OH-allyl-all

>  <Parent_Seed_ID>  (223) 
TRAIN_080

>  <Parent_Name>  (223) 
DOPO-PPO

>  <Transformation_Code>  (223) 
OH_allyl_all

>  <Design_Family>  (223) 
P-only

>  <Preparation_Type>  (223) 
Additive

>  <Synthesis_Level>  (223) 
B

>  <Parent_Tanimoto_r3>  (223) 
0.6263736263736264

>  <Max_Train_Tanimoto_r3>  (223) 
0.6263736263736264

>  <Risk_Flags>  (223) 
large structural change from parent; candidate may be outside strict in-domain threshold

$$$$
CAND_R2_224 | PAD-amino
     RDKit          2D

 75 87  0  0  0  0  0  0  0  0999 V2000
    6.1700  -25.9971    0.0000 N   0  0  0  0  0  0  0  0  0  0  0  0
    5.2058  -24.8480    0.0000 C   0  0  0  0  0  0  0  0  0  0  0  0
    3.7286  -25.1085    0.0000 C   0  0  0  0  0  0  0  0  0  0  0  0
    2.7644  -23.9594    0.0000 C   0  0  0  0  0  0  0  0  0  0  0  0
    3.2774  -22.5499    0.0000 C   0  0  0  0  0  0  0  0  0  0  0  0
    2.5732  -21.2255    0.0000 N   0  0  0  0  0  0  0  0  0  0  0  0
    3.6152  -20.1464    0.0000 C   0  0  0  0  0  0  0  0  0  0  0  0
    3.3547  -18.6692    0.0000 N   0  0  0  0  0  0  0  0  0  0  0  0
    1.9452  -18.1562    0.0000 C   0  0  0  0  0  0  0  0  0  0  0  0
    1.6847  -16.6790    0.0000 C   0  0  0  0  0  0  0  0  0  0  0  0
    0.2752  -16.1660    0.0000 C   0  0  0  0  0  0  0  0  0  0  0  0
    0.0147  -14.6887    0.0000 C   0  0  0  0  0  0  0  0  0  0  0  0
    1.1638  -13.7246    0.0000 C   0  0  0  0  0  0  0  0  0  0  0  0
    0.9033  -12.2474    0.0000 O   0  0  0  0  0  0  0  0  0  0  0  0
    2.0524  -11.2832    0.0000 P   0  0  0  0  0  0  0  0  0  0  0  0
    3.0165  -12.4322    0.0000 O   0  0  0  0  0  0  0  0  0  0  0  0
    3.2014  -10.3190    0.0000 O   0  0  0  0  0  0  0  0  0  0  0  0
    4.6110  -10.8320    0.0000 C   0  0  0  0  0  0  0  0  0  0  0  0
    5.7600   -9.8678    0.0000 C   0  0  0  0  0  0  0  0  0  0  0  0
    7.1696  -10.3809    0.0000 C   0  0  0  0  0  0  0  0  0  0  0  0
    7.4300  -11.8581    0.0000 C   0  0  0  0  0  0  0  0  0  0  0  0
    8.8396  -12.3711    0.0000 C   0  0  0  0  0  0  0  0  0  0  0  0
    9.9887  -11.4069    0.0000 N   0  0  0  0  0  0  0  0  0  0  0  0
    9.7282   -9.9297    0.0000 C   0  0  0  0  0  0  0  0  0  0  0  0
    8.3800   -9.2722    0.0000 N   0  0  0  0  0  0  0  0  0  0  0  0
    8.5887   -7.7868    0.0000 C   0  0  0  0  0  0  0  0  0  0  0  0
    7.6246   -6.6377    0.0000 C   0  0  0  0  0  0  0  0  0  0  0  0
    8.1376   -5.2282    0.0000 C   0  0  0  0  0  0  0  0  0  0  0  0
    9.6148   -4.9677    0.0000 C   0  0  0  0  0  0  0  0  0  0  0  0
   10.5790   -6.1167    0.0000 C   0  0  0  0  0  0  0  0  0  0  0  0
   10.0660   -7.5263    0.0000 C   0  0  0  0  0  0  0  0  0  0  0  0
   10.7702   -8.8507    0.0000 S   0  0  0  0  0  0  0  0  0  0  0  0
    9.1001  -13.8483    0.0000 P   0  0  0  0  0  0  0  0  0  0  0  0
    7.6001  -13.8483    0.0000 O   0  0  0  0  0  0  0  0  0  0  0  0
   10.5096  -13.3353    0.0000 O   0  0  0  0  0  0  0  0  0  0  0  0
   11.6587  -14.2995    0.0000 C   0  0  0  0  0  0  0  0  0  0  0  0
   13.0682  -13.7864    0.0000 C   0  0  0  0  0  0  0  0  0  0  0  0
   14.2173  -14.7506    0.0000 C   0  0  0  0  0  0  0  0  0  0  0  0
   13.9568  -16.2278    0.0000 C   0  0  0  0  0  0  0  0  0  0  0  0
   12.5473  -16.7409    0.0000 C   0  0  0  0  0  0  0  0  0  0  0  0
   11.3982  -15.7767    0.0000 C   0  0  0  0  0  0  0  0  0  0  0  0
    9.9887  -16.2897    0.0000 C   0  0  0  0  0  0  0  0  0  0  0  0
    9.7282  -17.7669    0.0000 C   0  0  0  0  0  0  0  0  0  0  0  0
    8.3186  -18.2800    0.0000 C   0  0  0  0  0  0  0  0  0  0  0  0
    7.1696  -17.3158    0.0000 C   0  0  0  0  0  0  0  0  0  0  0  0
    7.4300  -15.8386    0.0000 C   0  0  0  0  0  0  0  0  0  0  0  0
    8.8396  -15.3255    0.0000 C   0  0  0  0  0  0  0  0  0  0  0  0
    6.2810  -12.8223    0.0000 C   0  0  0  0  0  0  0  0  0  0  0  0
    4.8714  -12.3092    0.0000 C   0  0  0  0  0  0  0  0  0  0  0  0
    1.0882  -10.1341    0.0000 C   0  0  0  0  0  0  0  0  0  0  0  0
    1.6012   -8.7246    0.0000 C   0  0  0  0  0  0  0  0  0  0  0  0
    0.6370   -7.5755    0.0000 C   0  0  0  0  0  0  0  0  0  0  0  0
   -0.8402   -7.8360    0.0000 C   0  0  0  0  0  0  0  0  0  0  0  0
   -1.3532   -9.2455    0.0000 C   0  0  0  0  0  0  0  0  0  0  0  0
   -0.3890  -10.3946    0.0000 C   0  0  0  0  0  0  0  0  0  0  0  0
    2.5733  -14.2376    0.0000 C   0  0  0  0  0  0  0  0  0  0  0  0
    2.8338  -15.7148    0.0000 C   0  0  0  0  0  0  0  0  0  0  0  0
    0.7961  -19.1204    0.0000 P   0  0  0  0  0  0  0  0  0  0  0  0
    1.9452  -20.0846    0.0000 O   0  0  0  0  0  0  0  0  0  0  0  0
    0.0461  -17.8213    0.0000 O   0  0  0  0  0  0  0  0  0  0  0  0
   -1.4539  -17.8213    0.0000 C   0  0  0  0  0  0  0  0  0  0  0  0
   -2.2039  -16.5223    0.0000 C   0  0  0  0  0  0  0  0  0  0  0  0
   -3.7039  -16.5223    0.0000 C   0  0  0  0  0  0  0  0  0  0  0  0
   -4.4539  -17.8213    0.0000 C   0  0  0  0  0  0  0  0  0  0  0  0
   -3.7039  -19.1204    0.0000 C   0  0  0  0  0  0  0  0  0  0  0  0
   -2.2039  -19.1204    0.0000 C   0  0  0  0  0  0  0  0  0  0  0  0
   -1.4539  -20.4194    0.0000 C   0  0  0  0  0  0  0  0  0  0  0  0
   -2.2039  -21.7185    0.0000 C   0  0  0  0  0  0  0  0  0  0  0  0
   -1.4539  -23.0175    0.0000 C   0  0  0  0  0  0  0  0  0  0  0  0
    0.0461  -23.0175    0.0000 C   0  0  0  0  0  0  0  0  0  0  0  0
    0.7961  -21.7185    0.0000 C   0  0  0  0  0  0  0  0  0  0  0  0
    0.0461  -20.4194    0.0000 C   0  0  0  0  0  0  0  0  0  0  0  0
    4.9634  -20.8040    0.0000 S   0  0  0  0  0  0  0  0  0  0  0  0
    4.7546  -22.2894    0.0000 C   0  0  0  0  0  0  0  0  0  0  0  0
    5.7188  -23.4385    0.0000 C   0  0  0  0  0  0  0  0  0  0  0  0
  1  2  1  0
  2  3  2  0
  3  4  1  0
  4  5  2  0
  5  6  1  0
  6  7  2  0
  7  8  1  0
  8  9  1  0
  9 10  1  0
 10 11  2  0
 11 12  1  0
 12 13  2  0
 13 14  1  0
 14 15  1  0
 15 16  2  0
 15 17  1  0
 17 18  1  0
 18 19  2  0
 19 20  1  0
 20 21  2  0
 21 22  1  0
 22 23  1  0
 23 24  1  0
 24 25  2  0
 25 26  1  0
 26 27  2  0
 27 28  1  0
 28 29  2  0
 29 30  1  0
 30 31  2  0
 31 32  1  0
 22 33  1  0
 33 34  2  0
 33 35  1  0
 35 36  1  0
 36 37  2  0
 37 38  1  0
 38 39  2  0
 39 40  1  0
 40 41  2  0
 41 42  1  0
 42 43  2  0
 43 44  1  0
 44 45  2  0
 45 46  1  0
 46 47  2  0
 21 48  1  0
 48 49  2  0
 15 50  1  0
 50 51  2  0
 51 52  1  0
 52 53  2  0
 53 54  1  0
 54 55  2  0
 13 56  1  0
 56 57  2  0
  9 58  1  0
 58 59  2  0
 58 60  1  0
 60 61  1  0
 61 62  2  0
 62 63  1  0
 63 64  2  0
 64 65  1  0
 65 66  2  0
 66 67  1  0
 67 68  2  0
 68 69  1  0
 69 70  2  0
 70 71  1  0
 71 72  2  0
  7 73  1  0
 73 74  1  0
 74 75  2  0
 75  2  1  0
 74  5  1  0
 57 10  1  0
 72 58  1  0
 49 18  1  0
 55 50  1  0
 66 61  1  0
 72 67  1  0
 32 24  1  0
 47 33  1  0
 31 26  1  0
 41 36  1  0
 47 42  1  0
M  END
>  <Candidate_ID>  (224) 
CAND_R2_224

>  <Candidate_Name>  (224) 
PAD-amino

>  <Parent_Seed_ID>  (224) 
TRAIN_055

>  <Parent_Name>  (224) 
PAD

>  <Transformation_Code>  (224) 
amino

>  <Design_Family>  (224) 
P-N-S

>  <Preparation_Type>  (224) 
Co-curing

>  <Synthesis_Level>  (224) 
B

>  <Parent_Tanimoto_r3>  (224) 
0.8490566037735849

>  <Max_Train_Tanimoto_r3>  (224) 
0.8490566037735849

>  <Risk_Flags>  (224) 
none

$$$$
CAND_R2_225 | PAD-hydroxy
     RDKit          2D

 75 87  0  0  0  0  0  0  0  0999 V2000
    3.0165  -12.4322    0.0000 O   0  0  0  0  0  0  0  0  0  0  0  0
    2.0524  -11.2832    0.0000 P   0  0  0  0  0  0  0  0  0  0  0  0
    3.2014  -10.3190    0.0000 O   0  0  0  0  0  0  0  0  0  0  0  0
    4.6110  -10.8320    0.0000 C   0  0  0  0  0  0  0  0  0  0  0  0
    5.7600   -9.8678    0.0000 C   0  0  0  0  0  0  0  0  0  0  0  0
    7.1696  -10.3809    0.0000 C   0  0  0  0  0  0  0  0  0  0  0  0
    7.4300  -11.8581    0.0000 C   0  0  0  0  0  0  0  0  0  0  0  0
    8.8396  -12.3711    0.0000 C   0  0  0  0  0  0  0  0  0  0  0  0
    9.9887  -11.4069    0.0000 N   0  0  0  0  0  0  0  0  0  0  0  0
    9.7282   -9.9297    0.0000 C   0  0  0  0  0  0  0  0  0  0  0  0
    8.3800   -9.2722    0.0000 N   0  0  0  0  0  0  0  0  0  0  0  0
    8.5887   -7.7868    0.0000 C   0  0  0  0  0  0  0  0  0  0  0  0
    7.6246   -6.6377    0.0000 C   0  0  0  0  0  0  0  0  0  0  0  0
    8.1376   -5.2282    0.0000 C   0  0  0  0  0  0  0  0  0  0  0  0
    9.6148   -4.9677    0.0000 C   0  0  0  0  0  0  0  0  0  0  0  0
   10.5790   -6.1167    0.0000 C   0  0  0  0  0  0  0  0  0  0  0  0
   10.0660   -7.5263    0.0000 C   0  0  0  0  0  0  0  0  0  0  0  0
   10.7702   -8.8507    0.0000 S   0  0  0  0  0  0  0  0  0  0  0  0
    9.1001  -13.8483    0.0000 P   0  0  0  0  0  0  0  0  0  0  0  0
    7.6001  -13.8483    0.0000 O   0  0  0  0  0  0  0  0  0  0  0  0
   10.5096  -13.3353    0.0000 O   0  0  0  0  0  0  0  0  0  0  0  0
   11.6587  -14.2995    0.0000 C   0  0  0  0  0  0  0  0  0  0  0  0
   13.0682  -13.7864    0.0000 C   0  0  0  0  0  0  0  0  0  0  0  0
   14.2173  -14.7506    0.0000 C   0  0  0  0  0  0  0  0  0  0  0  0
   13.9568  -16.2278    0.0000 C   0  0  0  0  0  0  0  0  0  0  0  0
   12.5473  -16.7409    0.0000 C   0  0  0  0  0  0  0  0  0  0  0  0
   11.3982  -15.7767    0.0000 C   0  0  0  0  0  0  0  0  0  0  0  0
    9.9887  -16.2897    0.0000 C   0  0  0  0  0  0  0  0  0  0  0  0
    9.7282  -17.7669    0.0000 C   0  0  0  0  0  0  0  0  0  0  0  0
    8.3186  -18.2800    0.0000 C   0  0  0  0  0  0  0  0  0  0  0  0
    7.1696  -17.3158    0.0000 C   0  0  0  0  0  0  0  0  0  0  0  0
    7.4300  -15.8386    0.0000 C   0  0  0  0  0  0  0  0  0  0  0  0
    8.8396  -15.3255    0.0000 C   0  0  0  0  0  0  0  0  0  0  0  0
    6.2810  -12.8223    0.0000 C   0  0  0  0  0  0  0  0  0  0  0  0
    4.8714  -12.3092    0.0000 C   0  0  0  0  0  0  0  0  0  0  0  0
    0.9033  -12.2474    0.0000 O   0  0  0  0  0  0  0  0  0  0  0  0
    1.1638  -13.7246    0.0000 C   0  0  0  0  0  0  0  0  0  0  0  0
    2.5733  -14.2376    0.0000 C   0  0  0  0  0  0  0  0  0  0  0  0
    2.8338  -15.7148    0.0000 C   0  0  0  0  0  0  0  0  0  0  0  0
    1.6847  -16.6790    0.0000 C   0  0  0  0  0  0  0  0  0  0  0  0
    1.9452  -18.1562    0.0000 C   0  0  0  0  0  0  0  0  0  0  0  0
    3.3547  -18.6692    0.0000 N   0  0  0  0  0  0  0  0  0  0  0  0
    3.6152  -20.1464    0.0000 C   0  0  0  0  0  0  0  0  0  0  0  0
    4.9634  -20.8040    0.0000 N   0  0  0  0  0  0  0  0  0  0  0  0
    4.7546  -22.2894    0.0000 C   0  0  0  0  0  0  0  0  0  0  0  0
    5.7188  -23.4385    0.0000 C   0  0  0  0  0  0  0  0  0  0  0  0
    5.2058  -24.8480    0.0000 C   0  0  0  0  0  0  0  0  0  0  0  0
    3.7286  -25.1085    0.0000 C   0  0  0  0  0  0  0  0  0  0  0  0
    3.2155  -26.5180    0.0000 O   0  0  0  0  0  0  0  0  0  0  0  0
    2.7644  -23.9594    0.0000 C   0  0  0  0  0  0  0  0  0  0  0  0
    3.2774  -22.5499    0.0000 C   0  0  0  0  0  0  0  0  0  0  0  0
    2.5732  -21.2255    0.0000 S   0  0  0  0  0  0  0  0  0  0  0  0
    0.7961  -19.1204    0.0000 P   0  0  0  0  0  0  0  0  0  0  0  0
    1.9452  -20.0846    0.0000 O   0  0  0  0  0  0  0  0  0  0  0  0
    0.0461  -17.8213    0.0000 O   0  0  0  0  0  0  0  0  0  0  0  0
   -1.4539  -17.8213    0.0000 C   0  0  0  0  0  0  0  0  0  0  0  0
   -2.2039  -16.5223    0.0000 C   0  0  0  0  0  0  0  0  0  0  0  0
   -3.7039  -16.5223    0.0000 C   0  0  0  0  0  0  0  0  0  0  0  0
   -4.4539  -17.8213    0.0000 C   0  0  0  0  0  0  0  0  0  0  0  0
   -3.7039  -19.1204    0.0000 C   0  0  0  0  0  0  0  0  0  0  0  0
   -2.2039  -19.1204    0.0000 C   0  0  0  0  0  0  0  0  0  0  0  0
   -1.4539  -20.4194    0.0000 C   0  0  0  0  0  0  0  0  0  0  0  0
   -2.2039  -21.7185    0.0000 C   0  0  0  0  0  0  0  0  0  0  0  0
   -1.4539  -23.0175    0.0000 C   0  0  0  0  0  0  0  0  0  0  0  0
    0.0461  -23.0175    0.0000 C   0  0  0  0  0  0  0  0  0  0  0  0
    0.7961  -21.7185    0.0000 C   0  0  0  0  0  0  0  0  0  0  0  0
    0.0461  -20.4194    0.0000 C   0  0  0  0  0  0  0  0  0  0  0  0
    0.2752  -16.1660    0.0000 C   0  0  0  0  0  0  0  0  0  0  0  0
    0.0147  -14.6887    0.0000 C   0  0  0  0  0  0  0  0  0  0  0  0
    1.0882  -10.1341    0.0000 C   0  0  0  0  0  0  0  0  0  0  0  0
    1.6012   -8.7246    0.0000 C   0  0  0  0  0  0  0  0  0  0  0  0
    0.6370   -7.5755    0.0000 C   0  0  0  0  0  0  0  0  0  0  0  0
   -0.8402   -7.8360    0.0000 C   0  0  0  0  0  0  0  0  0  0  0  0
   -1.3532   -9.2455    0.0000 C   0  0  0  0  0  0  0  0  0  0  0  0
   -0.3890  -10.3946    0.0000 C   0  0  0  0  0  0  0  0  0  0  0  0
  1  2  2  0
  2  3  1  0
  3  4  1  0
  4  5  2  0
  5  6  1  0
  6  7  2  0
  7  8  1  0
  8  9  1  0
  9 10  1  0
 10 11  2  0
 11 12  1  0
 12 13  2  0
 13 14  1  0
 14 15  2  0
 15 16  1  0
 16 17  2  0
 17 18  1  0
  8 19  1  0
 19 20  2  0
 19 21  1  0
 21 22  1  0
 22 23  2  0
 23 24  1  0
 24 25  2  0
 25 26  1  0
 26 27  2  0
 27 28  1  0
 28 29  2  0
 29 30  1  0
 30 31  2  0
 31 32  1  0
 32 33  2  0
  7 34  1  0
 34 35  2  0
  2 36  1  0
 36 37  1  0
 37 38  2  0
 38 39  1  0
 39 40  2  0
 40 41  1  0
 41 42  1  0
 42 43  1  0
 43 44  2  0
 44 45  1  0
 45 46  2  0
 46 47  1  0
 47 48  2  0
 48 49  1  0
 48 50  1  0
 50 51  2  0
 51 52  1  0
 41 53  1  0
 53 54  2  0
 53 55  1  0
 55 56  1  0
 56 57  2  0
 57 58  1  0
 58 59  2  0
 59 60  1  0
 60 61  2  0
 61 62  1  0
 62 63  2  0
 63 64  1  0
 64 65  2  0
 65 66  1  0
 66 67  2  0
 40 68  1  0
 68 69  2  0
  2 70  1  0
 70 71  2  0
 71 72  1  0
 72 73  2  0
 73 74  1  0
 74 75  2  0
 35  4  1  0
 69 37  1  0
 75 70  1  0
 18 10  1  0
 33 19  1  0
 52 43  1  0
 67 53  1  0
 17 12  1  0
 27 22  1  0
 33 28  1  0
 51 45  1  0
 61 56  1  0
 67 62  1  0
M  END
>  <Candidate_ID>  (225) 
CAND_R2_225

>  <Candidate_Name>  (225) 
PAD-hydroxy

>  <Parent_Seed_ID>  (225) 
TRAIN_055

>  <Parent_Name>  (225) 
PAD

>  <Transformation_Code>  (225) 
hydroxy

>  <Design_Family>  (225) 
P-N-S

>  <Preparation_Type>  (225) 
Additive

>  <Synthesis_Level>  (225) 
B

>  <Parent_Tanimoto_r3>  (225) 
0.8571428571428571

>  <Max_Train_Tanimoto_r3>  (225) 
0.8571428571428571

>  <Risk_Flags>  (225) 
none

$$$$
CAND_R2_226 | PAD-hydroxymethyl
     RDKit          2D

 76 88  0  0  0  0  0  0  0  0999 V2000
    3.0165  -12.4322    0.0000 O   0  0  0  0  0  0  0  0  0  0  0  0
    2.0524  -11.2832    0.0000 P   0  0  0  0  0  0  0  0  0  0  0  0
    3.2014  -10.3190    0.0000 O   0  0  0  0  0  0  0  0  0  0  0  0
    4.6110  -10.8320    0.0000 C   0  0  0  0  0  0  0  0  0  0  0  0
    5.7600   -9.8678    0.0000 C   0  0  0  0  0  0  0  0  0  0  0  0
    7.1696  -10.3809    0.0000 C   0  0  0  0  0  0  0  0  0  0  0  0
    7.4300  -11.8581    0.0000 C   0  0  0  0  0  0  0  0  0  0  0  0
    8.8396  -12.3711    0.0000 C   0  0  0  0  0  0  0  0  0  0  0  0
    9.9887  -11.4069    0.0000 N   0  0  0  0  0  0  0  0  0  0  0  0
    9.7282   -9.9297    0.0000 C   0  0  0  0  0  0  0  0  0  0  0  0
    8.3800   -9.2722    0.0000 N   0  0  0  0  0  0  0  0  0  0  0  0
    8.5887   -7.7868    0.0000 C   0  0  0  0  0  0  0  0  0  0  0  0
    7.6246   -6.6377    0.0000 C   0  0  0  0  0  0  0  0  0  0  0  0
    8.1376   -5.2282    0.0000 C   0  0  0  0  0  0  0  0  0  0  0  0
    9.6148   -4.9677    0.0000 C   0  0  0  0  0  0  0  0  0  0  0  0
   10.5790   -6.1167    0.0000 C   0  0  0  0  0  0  0  0  0  0  0  0
   10.0660   -7.5263    0.0000 C   0  0  0  0  0  0  0  0  0  0  0  0
   10.7702   -8.8507    0.0000 S   0  0  0  0  0  0  0  0  0  0  0  0
    9.1001  -13.8483    0.0000 P   0  0  0  0  0  0  0  0  0  0  0  0
    7.6001  -13.8483    0.0000 O   0  0  0  0  0  0  0  0  0  0  0  0
   10.5096  -13.3353    0.0000 O   0  0  0  0  0  0  0  0  0  0  0  0
   11.6587  -14.2995    0.0000 C   0  0  0  0  0  0  0  0  0  0  0  0
   13.0682  -13.7864    0.0000 C   0  0  0  0  0  0  0  0  0  0  0  0
   14.2173  -14.7506    0.0000 C   0  0  0  0  0  0  0  0  0  0  0  0
   13.9568  -16.2278    0.0000 C   0  0  0  0  0  0  0  0  0  0  0  0
   12.5473  -16.7409    0.0000 C   0  0  0  0  0  0  0  0  0  0  0  0
   11.3982  -15.7767    0.0000 C   0  0  0  0  0  0  0  0  0  0  0  0
    9.9887  -16.2897    0.0000 C   0  0  0  0  0  0  0  0  0  0  0  0
    9.7282  -17.7669    0.0000 C   0  0  0  0  0  0  0  0  0  0  0  0
    8.3186  -18.2800    0.0000 C   0  0  0  0  0  0  0  0  0  0  0  0
    7.1696  -17.3158    0.0000 C   0  0  0  0  0  0  0  0  0  0  0  0
    7.4300  -15.8386    0.0000 C   0  0  0  0  0  0  0  0  0  0  0  0
    8.8396  -15.3255    0.0000 C   0  0  0  0  0  0  0  0  0  0  0  0
    6.2810  -12.8223    0.0000 C   0  0  0  0  0  0  0  0  0  0  0  0
    4.8714  -12.3092    0.0000 C   0  0  0  0  0  0  0  0  0  0  0  0
    0.9033  -12.2474    0.0000 O   0  0  0  0  0  0  0  0  0  0  0  0
    1.1638  -13.7246    0.0000 C   0  0  0  0  0  0  0  0  0  0  0  0
    2.5733  -14.2376    0.0000 C   0  0  0  0  0  0  0  0  0  0  0  0
    2.8338  -15.7148    0.0000 C   0  0  0  0  0  0  0  0  0  0  0  0
    1.6847  -16.6790    0.0000 C   0  0  0  0  0  0  0  0  0  0  0  0
    1.9452  -18.1562    0.0000 C   0  0  0  0  0  0  0  0  0  0  0  0
    3.3547  -18.6692    0.0000 N   0  0  0  0  0  0  0  0  0  0  0  0
    3.6152  -20.1464    0.0000 C   0  0  0  0  0  0  0  0  0  0  0  0
    4.9634  -20.8040    0.0000 N   0  0  0  0  0  0  0  0  0  0  0  0
    4.7546  -22.2894    0.0000 C   0  0  0  0  0  0  0  0  0  0  0  0
    5.7188  -23.4385    0.0000 C   0  0  0  0  0  0  0  0  0  0  0  0
    5.2058  -24.8480    0.0000 C   0  0  0  0  0  0  0  0  0  0  0  0
    3.7286  -25.1085    0.0000 C   0  0  0  0  0  0  0  0  0  0  0  0
    3.2155  -26.5180    0.0000 C   0  0  0  0  0  0  0  0  0  0  0  0
    4.1797  -27.6671    0.0000 O   0  0  0  0  0  0  0  0  0  0  0  0
    2.7644  -23.9594    0.0000 C   0  0  0  0  0  0  0  0  0  0  0  0
    3.2774  -22.5499    0.0000 C   0  0  0  0  0  0  0  0  0  0  0  0
    2.5732  -21.2255    0.0000 S   0  0  0  0  0  0  0  0  0  0  0  0
    0.7961  -19.1204    0.0000 P   0  0  0  0  0  0  0  0  0  0  0  0
    1.9452  -20.0846    0.0000 O   0  0  0  0  0  0  0  0  0  0  0  0
    0.0461  -17.8213    0.0000 O   0  0  0  0  0  0  0  0  0  0  0  0
   -1.4539  -17.8213    0.0000 C   0  0  0  0  0  0  0  0  0  0  0  0
   -2.2039  -16.5223    0.0000 C   0  0  0  0  0  0  0  0  0  0  0  0
   -3.7039  -16.5223    0.0000 C   0  0  0  0  0  0  0  0  0  0  0  0
   -4.4539  -17.8213    0.0000 C   0  0  0  0  0  0  0  0  0  0  0  0
   -3.7039  -19.1204    0.0000 C   0  0  0  0  0  0  0  0  0  0  0  0
   -2.2039  -19.1204    0.0000 C   0  0  0  0  0  0  0  0  0  0  0  0
   -1.4539  -20.4194    0.0000 C   0  0  0  0  0  0  0  0  0  0  0  0
   -2.2039  -21.7185    0.0000 C   0  0  0  0  0  0  0  0  0  0  0  0
   -1.4539  -23.0175    0.0000 C   0  0  0  0  0  0  0  0  0  0  0  0
    0.0461  -23.0175    0.0000 C   0  0  0  0  0  0  0  0  0  0  0  0
    0.7961  -21.7185    0.0000 C   0  0  0  0  0  0  0  0  0  0  0  0
    0.0461  -20.4194    0.0000 C   0  0  0  0  0  0  0  0  0  0  0  0
    0.2752  -16.1660    0.0000 C   0  0  0  0  0  0  0  0  0  0  0  0
    0.0147  -14.6887    0.0000 C   0  0  0  0  0  0  0  0  0  0  0  0
    1.0882  -10.1341    0.0000 C   0  0  0  0  0  0  0  0  0  0  0  0
    1.6012   -8.7246    0.0000 C   0  0  0  0  0  0  0  0  0  0  0  0
    0.6370   -7.5755    0.0000 C   0  0  0  0  0  0  0  0  0  0  0  0
   -0.8402   -7.8360    0.0000 C   0  0  0  0  0  0  0  0  0  0  0  0
   -1.3532   -9.2455    0.0000 C   0  0  0  0  0  0  0  0  0  0  0  0
   -0.3890  -10.3946    0.0000 C   0  0  0  0  0  0  0  0  0  0  0  0
  1  2  2  0
  2  3  1  0
  3  4  1  0
  4  5  2  0
  5  6  1  0
  6  7  2  0
  7  8  1  0
  8  9  1  0
  9 10  1  0
 10 11  2  0
 11 12  1  0
 12 13  2  0
 13 14  1  0
 14 15  2  0
 15 16  1  0
 16 17  2  0
 17 18  1  0
  8 19  1  0
 19 20  2  0
 19 21  1  0
 21 22  1  0
 22 23  2  0
 23 24  1  0
 24 25  2  0
 25 26  1  0
 26 27  2  0
 27 28  1  0
 28 29  2  0
 29 30  1  0
 30 31  2  0
 31 32  1  0
 32 33  2  0
  7 34  1  0
 34 35  2  0
  2 36  1  0
 36 37  1  0
 37 38  2  0
 38 39  1  0
 39 40  2  0
 40 41  1  0
 41 42  1  0
 42 43  1  0
 43 44  2  0
 44 45  1  0
 45 46  2  0
 46 47  1  0
 47 48  2  0
 48 49  1  0
 49 50  1  0
 48 51  1  0
 51 52  2  0
 52 53  1  0
 41 54  1  0
 54 55  2  0
 54 56  1  0
 56 57  1  0
 57 58  2  0
 58 59  1  0
 59 60  2  0
 60 61  1  0
 61 62  2  0
 62 63  1  0
 63 64  2  0
 64 65  1  0
 65 66  2  0
 66 67  1  0
 67 68  2  0
 40 69  1  0
 69 70  2  0
  2 71  1  0
 71 72  2  0
 72 73  1  0
 73 74  2  0
 74 75  1  0
 75 76  2  0
 35  4  1  0
 70 37  1  0
 76 71  1  0
 18 10  1  0
 33 19  1  0
 53 43  1  0
 68 54  1  0
 17 12  1  0
 27 22  1  0
 33 28  1  0
 52 45  1  0
 62 57  1  0
 68 63  1  0
M  END
>  <Candidate_ID>  (226) 
CAND_R2_226

>  <Candidate_Name>  (226) 
PAD-hydroxymethyl

>  <Parent_Seed_ID>  (226) 
TRAIN_055

>  <Parent_Name>  (226) 
PAD

>  <Transformation_Code>  (226) 
hydroxymethyl

>  <Design_Family>  (226) 
P-N-S

>  <Preparation_Type>  (226) 
Additive

>  <Synthesis_Level>  (226) 
B

>  <Parent_Tanimoto_r3>  (226) 
0.8333333333333334

>  <Max_Train_Tanimoto_r3>  (226) 
0.8333333333333334

>  <Risk_Flags>  (226) 
none

$$$$
CAND_R2_227 | PAD-carboxamide
     RDKit          2D

 77 89  0  0  0  0  0  0  0  0999 V2000
    5.6569  -27.4066    0.0000 N   0  0  0  0  0  0  0  0  0  0  0  0
    6.1700  -25.9971    0.0000 C   0  0  0  0  0  0  0  0  0  0  0  0
    7.6472  -25.7366    0.0000 O   0  0  0  0  0  0  0  0  0  0  0  0
    5.2058  -24.8480    0.0000 C   0  0  0  0  0  0  0  0  0  0  0  0
    3.7286  -25.1085    0.0000 C   0  0  0  0  0  0  0  0  0  0  0  0
    2.7644  -23.9594    0.0000 C   0  0  0  0  0  0  0  0  0  0  0  0
    3.2774  -22.5499    0.0000 C   0  0  0  0  0  0  0  0  0  0  0  0
    2.5732  -21.2255    0.0000 N   0  0  0  0  0  0  0  0  0  0  0  0
    3.6152  -20.1464    0.0000 C   0  0  0  0  0  0  0  0  0  0  0  0
    3.3547  -18.6692    0.0000 N   0  0  0  0  0  0  0  0  0  0  0  0
    1.9452  -18.1562    0.0000 C   0  0  0  0  0  0  0  0  0  0  0  0
    1.6847  -16.6790    0.0000 C   0  0  0  0  0  0  0  0  0  0  0  0
    0.2752  -16.1660    0.0000 C   0  0  0  0  0  0  0  0  0  0  0  0
    0.0147  -14.6887    0.0000 C   0  0  0  0  0  0  0  0  0  0  0  0
    1.1638  -13.7246    0.0000 C   0  0  0  0  0  0  0  0  0  0  0  0
    0.9033  -12.2474    0.0000 O   0  0  0  0  0  0  0  0  0  0  0  0
    2.0524  -11.2832    0.0000 P   0  0  0  0  0  0  0  0  0  0  0  0
    3.0165  -12.4322    0.0000 O   0  0  0  0  0  0  0  0  0  0  0  0
    3.2014  -10.3190    0.0000 O   0  0  0  0  0  0  0  0  0  0  0  0
    4.6110  -10.8320    0.0000 C   0  0  0  0  0  0  0  0  0  0  0  0
    5.7600   -9.8678    0.0000 C   0  0  0  0  0  0  0  0  0  0  0  0
    7.1696  -10.3809    0.0000 C   0  0  0  0  0  0  0  0  0  0  0  0
    7.4300  -11.8581    0.0000 C   0  0  0  0  0  0  0  0  0  0  0  0
    8.8396  -12.3711    0.0000 C   0  0  0  0  0  0  0  0  0  0  0  0
    9.9887  -11.4069    0.0000 N   0  0  0  0  0  0  0  0  0  0  0  0
    9.7282   -9.9297    0.0000 C   0  0  0  0  0  0  0  0  0  0  0  0
    8.3800   -9.2722    0.0000 N   0  0  0  0  0  0  0  0  0  0  0  0
    8.5887   -7.7868    0.0000 C   0  0  0  0  0  0  0  0  0  0  0  0
    7.6246   -6.6377    0.0000 C   0  0  0  0  0  0  0  0  0  0  0  0
    8.1376   -5.2282    0.0000 C   0  0  0  0  0  0  0  0  0  0  0  0
    9.6148   -4.9677    0.0000 C   0  0  0  0  0  0  0  0  0  0  0  0
   10.5790   -6.1167    0.0000 C   0  0  0  0  0  0  0  0  0  0  0  0
   10.0660   -7.5263    0.0000 C   0  0  0  0  0  0  0  0  0  0  0  0
   10.7702   -8.8507    0.0000 S   0  0  0  0  0  0  0  0  0  0  0  0
    9.1001  -13.8483    0.0000 P   0  0  0  0  0  0  0  0  0  0  0  0
    7.6001  -13.8483    0.0000 O   0  0  0  0  0  0  0  0  0  0  0  0
   10.5096  -13.3353    0.0000 O   0  0  0  0  0  0  0  0  0  0  0  0
   11.6587  -14.2995    0.0000 C   0  0  0  0  0  0  0  0  0  0  0  0
   13.0682  -13.7864    0.0000 C   0  0  0  0  0  0  0  0  0  0  0  0
   14.2173  -14.7506    0.0000 C   0  0  0  0  0  0  0  0  0  0  0  0
   13.9568  -16.2278    0.0000 C   0  0  0  0  0  0  0  0  0  0  0  0
   12.5473  -16.7409    0.0000 C   0  0  0  0  0  0  0  0  0  0  0  0
   11.3982  -15.7767    0.0000 C   0  0  0  0  0  0  0  0  0  0  0  0
    9.9887  -16.2897    0.0000 C   0  0  0  0  0  0  0  0  0  0  0  0
    9.7282  -17.7669    0.0000 C   0  0  0  0  0  0  0  0  0  0  0  0
    8.3186  -18.2800    0.0000 C   0  0  0  0  0  0  0  0  0  0  0  0
    7.1696  -17.3158    0.0000 C   0  0  0  0  0  0  0  0  0  0  0  0
    7.4300  -15.8386    0.0000 C   0  0  0  0  0  0  0  0  0  0  0  0
    8.8396  -15.3255    0.0000 C   0  0  0  0  0  0  0  0  0  0  0  0
    6.2810  -12.8223    0.0000 C   0  0  0  0  0  0  0  0  0  0  0  0
    4.8714  -12.3092    0.0000 C   0  0  0  0  0  0  0  0  0  0  0  0
    1.0882  -10.1341    0.0000 C   0  0  0  0  0  0  0  0  0  0  0  0
    1.6012   -8.7246    0.0000 C   0  0  0  0  0  0  0  0  0  0  0  0
    0.6370   -7.5755    0.0000 C   0  0  0  0  0  0  0  0  0  0  0  0
   -0.8402   -7.8360    0.0000 C   0  0  0  0  0  0  0  0  0  0  0  0
   -1.3532   -9.2455    0.0000 C   0  0  0  0  0  0  0  0  0  0  0  0
   -0.3890  -10.3946    0.0000 C   0  0  0  0  0  0  0  0  0  0  0  0
    2.5733  -14.2376    0.0000 C   0  0  0  0  0  0  0  0  0  0  0  0
    2.8338  -15.7148    0.0000 C   0  0  0  0  0  0  0  0  0  0  0  0
    0.7961  -19.1204    0.0000 P   0  0  0  0  0  0  0  0  0  0  0  0
    1.9452  -20.0846    0.0000 O   0  0  0  0  0  0  0  0  0  0  0  0
    0.0461  -17.8213    0.0000 O   0  0  0  0  0  0  0  0  0  0  0  0
   -1.4539  -17.8213    0.0000 C   0  0  0  0  0  0  0  0  0  0  0  0
   -2.2039  -16.5223    0.0000 C   0  0  0  0  0  0  0  0  0  0  0  0
   -3.7039  -16.5223    0.0000 C   0  0  0  0  0  0  0  0  0  0  0  0
   -4.4539  -17.8213    0.0000 C   0  0  0  0  0  0  0  0  0  0  0  0
   -3.7039  -19.1204    0.0000 C   0  0  0  0  0  0  0  0  0  0  0  0
   -2.2039  -19.1204    0.0000 C   0  0  0  0  0  0  0  0  0  0  0  0
   -1.4539  -20.4194    0.0000 C   0  0  0  0  0  0  0  0  0  0  0  0
   -2.2039  -21.7185    0.0000 C   0  0  0  0  0  0  0  0  0  0  0  0
   -1.4539  -23.0175    0.0000 C   0  0  0  0  0  0  0  0  0  0  0  0
    0.0461  -23.0175    0.0000 C   0  0  0  0  0  0  0  0  0  0  0  0
    0.7961  -21.7185    0.0000 C   0  0  0  0  0  0  0  0  0  0  0  0
    0.0461  -20.4194    0.0000 C   0  0  0  0  0  0  0  0  0  0  0  0
    4.9634  -20.8040    0.0000 S   0  0  0  0  0  0  0  0  0  0  0  0
    4.7546  -22.2894    0.0000 C   0  0  0  0  0  0  0  0  0  0  0  0
    5.7188  -23.4385    0.0000 C   0  0  0  0  0  0  0  0  0  0  0  0
  1  2  1  0
  2  3  2  0
  2  4  1  0
  4  5  2  0
  5  6  1  0
  6  7  2  0
  7  8  1  0
  8  9  2  0
  9 10  1  0
 10 11  1  0
 11 12  1  0
 12 13  2  0
 13 14  1  0
 14 15  2  0
 15 16  1  0
 16 17  1  0
 17 18  2  0
 17 19  1  0
 19 20  1  0
 20 21  2  0
 21 22  1  0
 22 23  2  0
 23 24  1  0
 24 25  1  0
 25 26  1  0
 26 27  2  0
 27 28  1  0
 28 29  2  0
 29 30  1  0
 30 31  2  0
 31 32  1  0
 32 33  2  0
 33 34  1  0
 24 35  1  0
 35 36  2  0
 35 37  1  0
 37 38  1  0
 38 39  2  0
 39 40  1  0
 40 41  2  0
 41 42  1  0
 42 43  2  0
 43 44  1  0
 44 45  2  0
 45 46  1  0
 46 47  2  0
 47 48  1  0
 48 49  2  0
 23 50  1  0
 50 51  2  0
 17 52  1  0
 52 53  2  0
 53 54  1  0
 54 55  2  0
 55 56  1  0
 56 57  2  0
 15 58  1  0
 58 59  2  0
 11 60  1  0
 60 61  2  0
 60 62  1  0
 62 63  1  0
 63 64  2  0
 64 65  1  0
 65 66  2  0
 66 67  1  0
 67 68  2  0
 68 69  1  0
 69 70  2  0
 70 71  1  0
 71 72  2  0
 72 73  1  0
 73 74  2  0
  9 75  1  0
 75 76  1  0
 76 77  2  0
 77  4  1  0
 76  7  1  0
 59 12  1  0
 74 60  1  0
 51 20  1  0
 57 52  1  0
 68 63  1  0
 74 69  1  0
 34 26  1  0
 49 35  1  0
 33 28  1  0
 43 38  1  0
 49 44  1  0
M  END
>  <Candidate_ID>  (227) 
CAND_R2_227

>  <Candidate_Name>  (227) 
PAD-carboxamide

>  <Parent_Seed_ID>  (227) 
TRAIN_055

>  <Parent_Name>  (227) 
PAD

>  <Transformation_Code>  (227) 
carboxamide

>  <Design_Family>  (227) 
P-N-S

>  <Preparation_Type>  (227) 
Additive

>  <Synthesis_Level>  (227) 
B

>  <Parent_Tanimoto_r3>  (227) 
0.8181818181818182

>  <Max_Train_Tanimoto_r3>  (227) 
0.8181818181818182

>  <Risk_Flags>  (227) 
none

$$$$
CAND_R2_228 | PAD-boronic-acid
     RDKit          2D

 77 89  0  0  0  0  0  0  0  0999 V2000
    3.0165  -12.4322    0.0000 O   0  0  0  0  0  0  0  0  0  0  0  0
    2.0524  -11.2832    0.0000 P   0  0  0  0  0  0  0  0  0  0  0  0
    3.2014  -10.3190    0.0000 O   0  0  0  0  0  0  0  0  0  0  0  0
    4.6110  -10.8320    0.0000 C   0  0  0  0  0  0  0  0  0  0  0  0
    5.7600   -9.8678    0.0000 C   0  0  0  0  0  0  0  0  0  0  0  0
    7.1696  -10.3809    0.0000 C   0  0  0  0  0  0  0  0  0  0  0  0
    7.4300  -11.8581    0.0000 C   0  0  0  0  0  0  0  0  0  0  0  0
    8.8396  -12.3711    0.0000 C   0  0  0  0  0  0  0  0  0  0  0  0
    9.9887  -11.4069    0.0000 N   0  0  0  0  0  0  0  0  0  0  0  0
    9.7282   -9.9297    0.0000 C   0  0  0  0  0  0  0  0  0  0  0  0
    8.3800   -9.2722    0.0000 N   0  0  0  0  0  0  0  0  0  0  0  0
    8.5887   -7.7868    0.0000 C   0  0  0  0  0  0  0  0  0  0  0  0
    7.6246   -6.6377    0.0000 C   0  0  0  0  0  0  0  0  0  0  0  0
    8.1376   -5.2282    0.0000 C   0  0  0  0  0  0  0  0  0  0  0  0
    9.6148   -4.9677    0.0000 C   0  0  0  0  0  0  0  0  0  0  0  0
   10.5790   -6.1167    0.0000 C   0  0  0  0  0  0  0  0  0  0  0  0
   10.0660   -7.5263    0.0000 C   0  0  0  0  0  0  0  0  0  0  0  0
   10.7702   -8.8507    0.0000 S   0  0  0  0  0  0  0  0  0  0  0  0
    9.1001  -13.8483    0.0000 P   0  0  0  0  0  0  0  0  0  0  0  0
    7.6001  -13.8483    0.0000 O   0  0  0  0  0  0  0  0  0  0  0  0
   10.5096  -13.3353    0.0000 O   0  0  0  0  0  0  0  0  0  0  0  0
   11.6587  -14.2995    0.0000 C   0  0  0  0  0  0  0  0  0  0  0  0
   13.0682  -13.7864    0.0000 C   0  0  0  0  0  0  0  0  0  0  0  0
   14.2173  -14.7506    0.0000 C   0  0  0  0  0  0  0  0  0  0  0  0
   13.9568  -16.2278    0.0000 C   0  0  0  0  0  0  0  0  0  0  0  0
   12.5473  -16.7409    0.0000 C   0  0  0  0  0  0  0  0  0  0  0  0
   11.3982  -15.7767    0.0000 C   0  0  0  0  0  0  0  0  0  0  0  0
    9.9887  -16.2897    0.0000 C   0  0  0  0  0  0  0  0  0  0  0  0
    9.7282  -17.7669    0.0000 C   0  0  0  0  0  0  0  0  0  0  0  0
    8.3186  -18.2800    0.0000 C   0  0  0  0  0  0  0  0  0  0  0  0
    7.1696  -17.3158    0.0000 C   0  0  0  0  0  0  0  0  0  0  0  0
    7.4300  -15.8386    0.0000 C   0  0  0  0  0  0  0  0  0  0  0  0
    8.8396  -15.3255    0.0000 C   0  0  0  0  0  0  0  0  0  0  0  0
    6.2810  -12.8223    0.0000 C   0  0  0  0  0  0  0  0  0  0  0  0
    4.8714  -12.3092    0.0000 C   0  0  0  0  0  0  0  0  0  0  0  0
    0.9033  -12.2474    0.0000 O   0  0  0  0  0  0  0  0  0  0  0  0
    1.1638  -13.7246    0.0000 C   0  0  0  0  0  0  0  0  0  0  0  0
    2.5733  -14.2376    0.0000 C   0  0  0  0  0  0  0  0  0  0  0  0
    2.8338  -15.7148    0.0000 C   0  0  0  0  0  0  0  0  0  0  0  0
    1.6847  -16.6790    0.0000 C   0  0  0  0  0  0  0  0  0  0  0  0
    1.9452  -18.1562    0.0000 C   0  0  0  0  0  0  0  0  0  0  0  0
    3.3547  -18.6692    0.0000 N   0  0  0  0  0  0  0  0  0  0  0  0
    3.6152  -20.1464    0.0000 C   0  0  0  0  0  0  0  0  0  0  0  0
    4.9634  -20.8040    0.0000 N   0  0  0  0  0  0  0  0  0  0  0  0
    4.7546  -22.2894    0.0000 C   0  0  0  0  0  0  0  0  0  0  0  0
    5.7188  -23.4385    0.0000 C   0  0  0  0  0  0  0  0  0  0  0  0
    5.2058  -24.8480    0.0000 C   0  0  0  0  0  0  0  0  0  0  0  0
    3.7286  -25.1085    0.0000 C   0  0  0  0  0  0  0  0  0  0  0  0
    3.2155  -26.5180    0.0000 B   0  0  0  0  0  0  0  0  0  0  0  0
    4.1797  -27.6671    0.0000 O   0  0  0  0  0  0  0  0  0  0  0  0
    1.7383  -26.7785    0.0000 O   0  0  0  0  0  0  0  0  0  0  0  0
    2.7644  -23.9594    0.0000 C   0  0  0  0  0  0  0  0  0  0  0  0
    3.2774  -22.5499    0.0000 C   0  0  0  0  0  0  0  0  0  0  0  0
    2.5732  -21.2255    0.0000 S   0  0  0  0  0  0  0  0  0  0  0  0
    0.7961  -19.1204    0.0000 P   0  0  0  0  0  0  0  0  0  0  0  0
    1.9452  -20.0846    0.0000 O   0  0  0  0  0  0  0  0  0  0  0  0
    0.0461  -17.8213    0.0000 O   0  0  0  0  0  0  0  0  0  0  0  0
   -1.4539  -17.8213    0.0000 C   0  0  0  0  0  0  0  0  0  0  0  0
   -2.2039  -16.5223    0.0000 C   0  0  0  0  0  0  0  0  0  0  0  0
   -3.7039  -16.5223    0.0000 C   0  0  0  0  0  0  0  0  0  0  0  0
   -4.4539  -17.8213    0.0000 C   0  0  0  0  0  0  0  0  0  0  0  0
   -3.7039  -19.1204    0.0000 C   0  0  0  0  0  0  0  0  0  0  0  0
   -2.2039  -19.1204    0.0000 C   0  0  0  0  0  0  0  0  0  0  0  0
   -1.4539  -20.4194    0.0000 C   0  0  0  0  0  0  0  0  0  0  0  0
   -2.2039  -21.7185    0.0000 C   0  0  0  0  0  0  0  0  0  0  0  0
   -1.4539  -23.0175    0.0000 C   0  0  0  0  0  0  0  0  0  0  0  0
    0.0461  -23.0175    0.0000 C   0  0  0  0  0  0  0  0  0  0  0  0
    0.7961  -21.7185    0.0000 C   0  0  0  0  0  0  0  0  0  0  0  0
    0.0461  -20.4194    0.0000 C   0  0  0  0  0  0  0  0  0  0  0  0
    0.2752  -16.1660    0.0000 C   0  0  0  0  0  0  0  0  0  0  0  0
    0.0147  -14.6887    0.0000 C   0  0  0  0  0  0  0  0  0  0  0  0
    1.0882  -10.1341    0.0000 C   0  0  0  0  0  0  0  0  0  0  0  0
    1.6012   -8.7246    0.0000 C   0  0  0  0  0  0  0  0  0  0  0  0
    0.6370   -7.5755    0.0000 C   0  0  0  0  0  0  0  0  0  0  0  0
   -0.8402   -7.8360    0.0000 C   0  0  0  0  0  0  0  0  0  0  0  0
   -1.3532   -9.2455    0.0000 C   0  0  0  0  0  0  0  0  0  0  0  0
   -0.3890  -10.3946    0.0000 C   0  0  0  0  0  0  0  0  0  0  0  0
  1  2  2  0
  2  3  1  0
  3  4  1  0
  4  5  2  0
  5  6  1  0
  6  7  2  0
  7  8  1  0
  8  9  1  0
  9 10  1  0
 10 11  2  0
 11 12  1  0
 12 13  2  0
 13 14  1  0
 14 15  2  0
 15 16  1  0
 16 17  2  0
 17 18  1  0
  8 19  1  0
 19 20  2  0
 19 21  1  0
 21 22  1  0
 22 23  2  0
 23 24  1  0
 24 25  2  0
 25 26  1  0
 26 27  2  0
 27 28  1  0
 28 29  2  0
 29 30  1  0
 30 31  2  0
 31 32  1  0
 32 33  2  0
  7 34  1  0
 34 35  2  0
  2 36  1  0
 36 37  1  0
 37 38  2  0
 38 39  1  0
 39 40  2  0
 40 41  1  0
 41 42  1  0
 42 43  1  0
 43 44  2  0
 44 45  1  0
 45 46  2  0
 46 47  1  0
 47 48  2  0
 48 49  1  0
 49 50  1  0
 49 51  1  0
 48 52  1  0
 52 53  2  0
 53 54  1  0
 41 55  1  0
 55 56  2  0
 55 57  1  0
 57 58  1  0
 58 59  2  0
 59 60  1  0
 60 61  2  0
 61 62  1  0
 62 63  2  0
 63 64  1  0
 64 65  2  0
 65 66  1  0
 66 67  2  0
 67 68  1  0
 68 69  2  0
 40 70  1  0
 70 71  2  0
  2 72  1  0
 72 73  2  0
 73 74  1  0
 74 75  2  0
 75 76  1  0
 76 77  2  0
 35  4  1  0
 71 37  1  0
 77 72  1  0
 18 10  1  0
 33 19  1  0
 54 43  1  0
 69 55  1  0
 17 12  1  0
 27 22  1  0
 33 28  1  0
 53 45  1  0
 63 58  1  0
 69 64  1  0
M  END
>  <Candidate_ID>  (228) 
CAND_R2_228

>  <Candidate_Name>  (228) 
PAD-boronic-acid

>  <Parent_Seed_ID>  (228) 
TRAIN_055

>  <Parent_Name>  (228) 
PAD

>  <Transformation_Code>  (228) 
boronic_acid

>  <Design_Family>  (228) 
P-N-B-S

>  <Preparation_Type>  (228) 
Additive

>  <Synthesis_Level>  (228) 
B

>  <Parent_Tanimoto_r3>  (228) 
0.8256880733944955

>  <Max_Train_Tanimoto_r3>  (228) 
0.8256880733944955

>  <Risk_Flags>  (228) 
none

$$$$
CAND_R2_229 | PAD-pinacol-boronate
     RDKit          2D

 83 96  0  0  0  0  0  0  0  0999 V2000
  -15.1057   -4.0912    0.0000 C   0  0  0  0  0  0  0  0  0  0  0  0
  -13.7812   -3.3869    0.0000 C   0  0  0  0  0  0  0  0  0  0  0  0
  -14.6200   -2.1434    0.0000 C   0  0  0  0  0  0  0  0  0  0  0  0
  -13.2193   -4.7777    0.0000 O   0  0  0  0  0  0  0  0  0  0  0  0
  -11.7230   -4.6731    0.0000 B   0  0  0  0  0  0  0  0  0  0  0  0
  -10.7588   -5.8222    0.0000 C   0  0  0  0  0  0  0  0  0  0  0  0
  -11.2718   -7.2317    0.0000 C   0  0  0  0  0  0  0  0  0  0  0  0
  -10.3077   -8.3808    0.0000 C   0  0  0  0  0  0  0  0  0  0  0  0
   -8.8304   -8.1203    0.0000 C   0  0  0  0  0  0  0  0  0  0  0  0
   -7.6484   -9.0438    0.0000 N   0  0  0  0  0  0  0  0  0  0  0  0
   -6.4049   -8.2050    0.0000 C   0  0  0  0  0  0  0  0  0  0  0  0
   -4.9953   -8.7180    0.0000 N   0  0  0  0  0  0  0  0  0  0  0  0
   -4.7349  -10.1952    0.0000 C   0  0  0  0  0  0  0  0  0  0  0  0
   -3.3253  -10.7083    0.0000 C   0  0  0  0  0  0  0  0  0  0  0  0
   -3.0648  -12.1855    0.0000 C   0  0  0  0  0  0  0  0  0  0  0  0
   -1.6553  -12.6985    0.0000 C   0  0  0  0  0  0  0  0  0  0  0  0
   -0.5062  -11.7343    0.0000 C   0  0  0  0  0  0  0  0  0  0  0  0
    0.9033  -12.2474    0.0000 O   0  0  0  0  0  0  0  0  0  0  0  0
    2.0524  -11.2832    0.0000 P   0  0  0  0  0  0  0  0  0  0  0  0
    1.0882  -10.1341    0.0000 O   0  0  0  0  0  0  0  0  0  0  0  0
    3.2014  -10.3190    0.0000 O   0  0  0  0  0  0  0  0  0  0  0  0
    2.9410   -8.8418    0.0000 C   0  0  0  0  0  0  0  0  0  0  0  0
    4.0900   -7.8776    0.0000 C   0  0  0  0  0  0  0  0  0  0  0  0
    3.8296   -6.4004    0.0000 C   0  0  0  0  0  0  0  0  0  0  0  0
    2.4200   -5.8874    0.0000 C   0  0  0  0  0  0  0  0  0  0  0  0
    2.1595   -4.4101    0.0000 C   0  0  0  0  0  0  0  0  0  0  0  0
    3.3086   -3.4460    0.0000 N   0  0  0  0  0  0  0  0  0  0  0  0
    4.7181   -3.9590    0.0000 C   0  0  0  0  0  0  0  0  0  0  0  0
    5.1316   -5.4009    0.0000 N   0  0  0  0  0  0  0  0  0  0  0  0
    6.6307   -5.4532    0.0000 C   0  0  0  0  0  0  0  0  0  0  0  0
    7.5949   -6.6023    0.0000 C   0  0  0  0  0  0  0  0  0  0  0  0
    9.0721   -6.3418    0.0000 C   0  0  0  0  0  0  0  0  0  0  0  0
    9.5851   -4.9323    0.0000 C   0  0  0  0  0  0  0  0  0  0  0  0
    8.6209   -3.7832    0.0000 C   0  0  0  0  0  0  0  0  0  0  0  0
    7.1437   -4.0437    0.0000 C   0  0  0  0  0  0  0  0  0  0  0  0
    5.9617   -3.1202    0.0000 S   0  0  0  0  0  0  0  0  0  0  0  0
    0.7500   -3.8971    0.0000 P   0  0  0  0  0  0  0  0  0  0  0  0
    0.4895   -5.3743    0.0000 O   0  0  0  0  0  0  0  0  0  0  0  0
    1.5000   -2.5981    0.0000 O   0  0  0  0  0  0  0  0  0  0  0  0
    0.7500   -1.2990    0.0000 C   0  0  0  0  0  0  0  0  0  0  0  0
    1.5000   -0.0000    0.0000 C   0  0  0  0  0  0  0  0  0  0  0  0
    0.7500    1.2990    0.0000 C   0  0  0  0  0  0  0  0  0  0  0  0
   -0.7500    1.2990    0.0000 C   0  0  0  0  0  0  0  0  0  0  0  0
   -1.5000   -0.0000    0.0000 C   0  0  0  0  0  0  0  0  0  0  0  0
   -0.7500   -1.2990    0.0000 C   0  0  0  0  0  0  0  0  0  0  0  0
   -1.5000   -2.5981    0.0000 C   0  0  0  0  0  0  0  0  0  0  0  0
   -3.0000   -2.5981    0.0000 C   0  0  0  0  0  0  0  0  0  0  0  0
   -3.7500   -3.8971    0.0000 C   0  0  0  0  0  0  0  0  0  0  0  0
   -3.0000   -5.1962    0.0000 C   0  0  0  0  0  0  0  0  0  0  0  0
   -1.5000   -5.1962    0.0000 C   0  0  0  0  0  0  0  0  0  0  0  0
   -0.7500   -3.8971    0.0000 C   0  0  0  0  0  0  0  0  0  0  0  0
    1.2709   -6.8515    0.0000 C   0  0  0  0  0  0  0  0  0  0  0  0
    1.5314   -8.3287    0.0000 C   0  0  0  0  0  0  0  0  0  0  0  0
    3.0165  -12.4322    0.0000 C   0  0  0  0  0  0  0  0  0  0  0  0
    4.4938  -12.1718    0.0000 C   0  0  0  0  0  0  0  0  0  0  0  0
    5.4579  -13.3208    0.0000 C   0  0  0  0  0  0  0  0  0  0  0  0
    4.9449  -14.7304    0.0000 C   0  0  0  0  0  0  0  0  0  0  0  0
    3.4677  -14.9908    0.0000 C   0  0  0  0  0  0  0  0  0  0  0  0
    2.5035  -13.8418    0.0000 C   0  0  0  0  0  0  0  0  0  0  0  0
   -0.7667  -10.2571    0.0000 C   0  0  0  0  0  0  0  0  0  0  0  0
   -2.1763   -9.7441    0.0000 C   0  0  0  0  0  0  0  0  0  0  0  0
   -5.8839  -11.1594    0.0000 P   0  0  0  0  0  0  0  0  0  0  0  0
   -6.6339   -9.8604    0.0000 O   0  0  0  0  0  0  0  0  0  0  0  0
   -4.7349  -12.1236    0.0000 O   0  0  0  0  0  0  0  0  0  0  0  0
   -4.9953  -13.6008    0.0000 C   0  0  0  0  0  0  0  0  0  0  0  0
   -3.8463  -14.5650    0.0000 C   0  0  0  0  0  0  0  0  0  0  0  0
   -4.1067  -16.0422    0.0000 C   0  0  0  0  0  0  0  0  0  0  0  0
   -5.5163  -16.5552    0.0000 C   0  0  0  0  0  0  0  0  0  0  0  0
   -6.6653  -15.5910    0.0000 C   0  0  0  0  0  0  0  0  0  0  0  0
   -6.4049  -14.1138    0.0000 C   0  0  0  0  0  0  0  0  0  0  0  0
   -7.5539  -13.1497    0.0000 C   0  0  0  0  0  0  0  0  0  0  0  0
   -8.9635  -13.6627    0.0000 C   0  0  0  0  0  0  0  0  0  0  0  0
  -10.1125  -12.6985    0.0000 C   0  0  0  0  0  0  0  0  0  0  0  0
   -9.8521  -11.2213    0.0000 C   0  0  0  0  0  0  0  0  0  0  0  0
   -8.4425  -10.7083    0.0000 C   0  0  0  0  0  0  0  0  0  0  0  0
   -7.2935  -11.6724    0.0000 C   0  0  0  0  0  0  0  0  0  0  0  0
   -6.8183   -6.7631    0.0000 S   0  0  0  0  0  0  0  0  0  0  0  0
   -8.3174   -6.7107    0.0000 C   0  0  0  0  0  0  0  0  0  0  0  0
   -9.2816   -5.5617    0.0000 C   0  0  0  0  0  0  0  0  0  0  0  0
  -11.3601   -3.2176    0.0000 O   0  0  0  0  0  0  0  0  0  0  0  0
  -12.6322   -2.4228    0.0000 C   0  0  0  0  0  0  0  0  0  0  0  0
  -13.7112   -1.3808    0.0000 C   0  0  0  0  0  0  0  0  0  0  0  0
  -11.7087   -1.2407    0.0000 C   0  0  0  0  0  0  0  0  0  0  0  0
  1  2  1  0
  2  3  1  0
  2  4  1  0
  4  5  1  0
  5  6  1  0
  6  7  2  0
  7  8  1  0
  8  9  2  0
  9 10  1  0
 10 11  2  0
 11 12  1  0
 12 13  1  0
 13 14  1  0
 14 15  2  0
 15 16  1  0
 16 17  2  0
 17 18  1  0
 18 19  1  0
 19 20  2  0
 19 21  1  0
 21 22  1  0
 22 23  2  0
 23 24  1  0
 24 25  2  0
 25 26  1  0
 26 27  1  0
 27 28  1  0
 28 29  2  0
 29 30  1  0
 30 31  2  0
 31 32  1  0
 32 33  2  0
 33 34  1  0
 34 35  2  0
 35 36  1  0
 26 37  1  0
 37 38  2  0
 37 39  1  0
 39 40  1  0
 40 41  2  0
 41 42  1  0
 42 43  2  0
 43 44  1  0
 44 45  2  0
 45 46  1  0
 46 47  2  0
 47 48  1  0
 48 49  2  0
 49 50  1  0
 50 51  2  0
 25 52  1  0
 52 53  2  0
 19 54  1  0
 54 55  2  0
 55 56  1  0
 56 57  2  0
 57 58  1  0
 58 59  2  0
 17 60  1  0
 60 61  2  0
 13 62  1  0
 62 63  2  0
 62 64  1  0
 64 65  1  0
 65 66  2  0
 66 67  1  0
 67 68  2  0
 68 69  1  0
 69 70  2  0
 70 71  1  0
 71 72  2  0
 72 73  1  0
 73 74  2  0
 74 75  1  0
 75 76  2  0
 11 77  1  0
 77 78  1  0
 78 79  2  0
  5 80  1  0
 80 81  1  0
 81 82  1  0
 81 83  1  0
 81  2  1  0
 79  6  1  0
 78  9  1  0
 61 14  1  0
 76 62  1  0
 53 22  1  0
 59 54  1  0
 70 65  1  0
 76 71  1  0
 36 28  1  0
 51 37  1  0
 35 30  1  0
 45 40  1  0
 51 46  1  0
M  END
>  <Candidate_ID>  (229) 
CAND_R2_229

>  <Candidate_Name>  (229) 
PAD-pinacol-boronate

>  <Parent_Seed_ID>  (229) 
TRAIN_055

>  <Parent_Name>  (229) 
PAD

>  <Transformation_Code>  (229) 
pinacol_boronate

>  <Design_Family>  (229) 
P-N-B-S

>  <Preparation_Type>  (229) 
Additive

>  <Synthesis_Level>  (229) 
B

>  <Parent_Tanimoto_r3>  (229) 
0.7692307692307693

>  <Max_Train_Tanimoto_r3>  (229) 
0.7692307692307693

>  <Risk_Flags>  (229) 
none

$$$$
CAND_R2_230 | PAD-trimethoxysilyl
     RDKit          2D

 81 93  0  0  0  0  0  0  0  0999 V2000
    8.6114  -26.8857    0.0000 C   0  0  0  0  0  0  0  0  0  0  0  0
    7.1341  -27.1461    0.0000 O   0  0  0  0  0  0  0  0  0  0  0  0
    6.1700  -25.9971    0.0000 Si  0  0  0  0  0  4  0  0  0  0  0  0
    5.0209  -26.9613    0.0000 O   0  0  0  0  0  0  0  0  0  0  0  0
    5.2814  -28.4385    0.0000 C   0  0  0  0  0  0  0  0  0  0  0  0
    7.3190  -25.0329    0.0000 O   0  0  0  0  0  0  0  0  0  0  0  0
    8.7286  -25.5459    0.0000 C   0  0  0  0  0  0  0  0  0  0  0  0
    5.2058  -24.8480    0.0000 C   0  0  0  0  0  0  0  0  0  0  0  0
    3.7286  -25.1085    0.0000 C   0  0  0  0  0  0  0  0  0  0  0  0
    2.7644  -23.9594    0.0000 C   0  0  0  0  0  0  0  0  0  0  0  0
    3.2774  -22.5499    0.0000 C   0  0  0  0  0  0  0  0  0  0  0  0
    2.5732  -21.2255    0.0000 N   0  0  0  0  0  0  0  0  0  0  0  0
    3.6152  -20.1464    0.0000 C   0  0  0  0  0  0  0  0  0  0  0  0
    3.3547  -18.6692    0.0000 N   0  0  0  0  0  0  0  0  0  0  0  0
    1.9452  -18.1562    0.0000 C   0  0  0  0  0  0  0  0  0  0  0  0
    1.6847  -16.6790    0.0000 C   0  0  0  0  0  0  0  0  0  0  0  0
    0.2752  -16.1660    0.0000 C   0  0  0  0  0  0  0  0  0  0  0  0
    0.0147  -14.6887    0.0000 C   0  0  0  0  0  0  0  0  0  0  0  0
    1.1638  -13.7246    0.0000 C   0  0  0  0  0  0  0  0  0  0  0  0
    0.9033  -12.2474    0.0000 O   0  0  0  0  0  0  0  0  0  0  0  0
    2.0524  -11.2832    0.0000 P   0  0  0  0  0  0  0  0  0  0  0  0
    3.0165  -12.4322    0.0000 O   0  0  0  0  0  0  0  0  0  0  0  0
    3.2014  -10.3190    0.0000 O   0  0  0  0  0  0  0  0  0  0  0  0
    4.6110  -10.8320    0.0000 C   0  0  0  0  0  0  0  0  0  0  0  0
    5.7600   -9.8678    0.0000 C   0  0  0  0  0  0  0  0  0  0  0  0
    7.1696  -10.3809    0.0000 C   0  0  0  0  0  0  0  0  0  0  0  0
    7.4300  -11.8581    0.0000 C   0  0  0  0  0  0  0  0  0  0  0  0
    8.8396  -12.3711    0.0000 C   0  0  0  0  0  0  0  0  0  0  0  0
    9.9887  -11.4069    0.0000 N   0  0  0  0  0  0  0  0  0  0  0  0
    9.7282   -9.9297    0.0000 C   0  0  0  0  0  0  0  0  0  0  0  0
    8.3800   -9.2722    0.0000 N   0  0  0  0  0  0  0  0  0  0  0  0
    8.5887   -7.7868    0.0000 C   0  0  0  0  0  0  0  0  0  0  0  0
    7.6246   -6.6377    0.0000 C   0  0  0  0  0  0  0  0  0  0  0  0
    8.1376   -5.2282    0.0000 C   0  0  0  0  0  0  0  0  0  0  0  0
    9.6148   -4.9677    0.0000 C   0  0  0  0  0  0  0  0  0  0  0  0
   10.5790   -6.1167    0.0000 C   0  0  0  0  0  0  0  0  0  0  0  0
   10.0660   -7.5263    0.0000 C   0  0  0  0  0  0  0  0  0  0  0  0
   10.7702   -8.8507    0.0000 S   0  0  0  0  0  0  0  0  0  0  0  0
    9.1001  -13.8483    0.0000 P   0  0  0  0  0  0  0  0  0  0  0  0
    7.6001  -13.8483    0.0000 O   0  0  0  0  0  0  0  0  0  0  0  0
   10.5096  -13.3353    0.0000 O   0  0  0  0  0  0  0  0  0  0  0  0
   11.6587  -14.2995    0.0000 C   0  0  0  0  0  0  0  0  0  0  0  0
   13.0682  -13.7864    0.0000 C   0  0  0  0  0  0  0  0  0  0  0  0
   14.2173  -14.7506    0.0000 C   0  0  0  0  0  0  0  0  0  0  0  0
   13.9568  -16.2278    0.0000 C   0  0  0  0  0  0  0  0  0  0  0  0
   12.5473  -16.7409    0.0000 C   0  0  0  0  0  0  0  0  0  0  0  0
   11.3982  -15.7767    0.0000 C   0  0  0  0  0  0  0  0  0  0  0  0
    9.9887  -16.2897    0.0000 C   0  0  0  0  0  0  0  0  0  0  0  0
    9.7282  -17.7669    0.0000 C   0  0  0  0  0  0  0  0  0  0  0  0
    8.3186  -18.2800    0.0000 C   0  0  0  0  0  0  0  0  0  0  0  0
    7.1696  -17.3158    0.0000 C   0  0  0  0  0  0  0  0  0  0  0  0
    7.4300  -15.8386    0.0000 C   0  0  0  0  0  0  0  0  0  0  0  0
    8.8396  -15.3255    0.0000 C   0  0  0  0  0  0  0  0  0  0  0  0
    6.2810  -12.8223    0.0000 C   0  0  0  0  0  0  0  0  0  0  0  0
    4.8714  -12.3092    0.0000 C   0  0  0  0  0  0  0  0  0  0  0  0
    1.0882  -10.1341    0.0000 C   0  0  0  0  0  0  0  0  0  0  0  0
    1.6012   -8.7246    0.0000 C   0  0  0  0  0  0  0  0  0  0  0  0
    0.6370   -7.5755    0.0000 C   0  0  0  0  0  0  0  0  0  0  0  0
   -0.8402   -7.8360    0.0000 C   0  0  0  0  0  0  0  0  0  0  0  0
   -1.3532   -9.2455    0.0000 C   0  0  0  0  0  0  0  0  0  0  0  0
   -0.3890  -10.3946    0.0000 C   0  0  0  0  0  0  0  0  0  0  0  0
    2.5733  -14.2376    0.0000 C   0  0  0  0  0  0  0  0  0  0  0  0
    2.8338  -15.7148    0.0000 C   0  0  0  0  0  0  0  0  0  0  0  0
    0.7961  -19.1204    0.0000 P   0  0  0  0  0  0  0  0  0  0  0  0
    1.9452  -20.0846    0.0000 O   0  0  0  0  0  0  0  0  0  0  0  0
    0.0461  -17.8213    0.0000 O   0  0  0  0  0  0  0  0  0  0  0  0
   -1.4539  -17.8213    0.0000 C   0  0  0  0  0  0  0  0  0  0  0  0
   -2.2039  -16.5223    0.0000 C   0  0  0  0  0  0  0  0  0  0  0  0
   -3.7039  -16.5223    0.0000 C   0  0  0  0  0  0  0  0  0  0  0  0
   -4.4539  -17.8213    0.0000 C   0  0  0  0  0  0  0  0  0  0  0  0
   -3.7039  -19.1204    0.0000 C   0  0  0  0  0  0  0  0  0  0  0  0
   -2.2039  -19.1204    0.0000 C   0  0  0  0  0  0  0  0  0  0  0  0
   -1.4539  -20.4194    0.0000 C   0  0  0  0  0  0  0  0  0  0  0  0
   -2.2039  -21.7185    0.0000 C   0  0  0  0  0  0  0  0  0  0  0  0
   -1.4539  -23.0175    0.0000 C   0  0  0  0  0  0  0  0  0  0  0  0
    0.0461  -23.0175    0.0000 C   0  0  0  0  0  0  0  0  0  0  0  0
    0.7961  -21.7185    0.0000 C   0  0  0  0  0  0  0  0  0  0  0  0
    0.0461  -20.4194    0.0000 C   0  0  0  0  0  0  0  0  0  0  0  0
    4.9634  -20.8040    0.0000 S   0  0  0  0  0  0  0  0  0  0  0  0
    4.7546  -22.2894    0.0000 C   0  0  0  0  0  0  0  0  0  0  0  0
    5.7188  -23.4385    0.0000 C   0  0  0  0  0  0  0  0  0  0  0  0
  1  2  1  0
  2  3  1  0
  3  4  1  0
  4  5  1  0
  3  6  1  0
  6  7  1  0
  3  8  1  0
  8  9  2  0
  9 10  1  0
 10 11  2  0
 11 12  1  0
 12 13  2  0
 13 14  1  0
 14 15  1  0
 15 16  1  0
 16 17  2  0
 17 18  1  0
 18 19  2  0
 19 20  1  0
 20 21  1  0
 21 22  2  0
 21 23  1  0
 23 24  1  0
 24 25  2  0
 25 26  1  0
 26 27  2  0
 27 28  1  0
 28 29  1  0
 29 30  1  0
 30 31  2  0
 31 32  1  0
 32 33  2  0
 33 34  1  0
 34 35  2  0
 35 36  1  0
 36 37  2  0
 37 38  1  0
 28 39  1  0
 39 40  2  0
 39 41  1  0
 41 42  1  0
 42 43  2  0
 43 44  1  0
 44 45  2  0
 45 46  1  0
 46 47  2  0
 47 48  1  0
 48 49  2  0
 49 50  1  0
 50 51  2  0
 51 52  1  0
 52 53  2  0
 27 54  1  0
 54 55  2  0
 21 56  1  0
 56 57  2  0
 57 58  1  0
 58 59  2  0
 59 60  1  0
 60 61  2  0
 19 62  1  0
 62 63  2  0
 15 64  1  0
 64 65  2  0
 64 66  1  0
 66 67  1  0
 67 68  2  0
 68 69  1  0
 69 70  2  0
 70 71  1  0
 71 72  2  0
 72 73  1  0
 73 74  2  0
 74 75  1  0
 75 76  2  0
 76 77  1  0
 77 78  2  0
 13 79  1  0
 79 80  1  0
 80 81  2  0
 81  8  1  0
 80 11  1  0
 63 16  1  0
 78 64  1  0
 55 24  1  0
 61 56  1  0
 72 67  1  0
 78 73  1  0
 38 30  1  0
 53 39  1  0
 37 32  1  0
 47 42  1  0
 53 48  1  0
M  END
>  <Candidate_ID>  (230) 
CAND_R2_230

>  <Candidate_Name>  (230) 
PAD-trimethoxysilyl

>  <Parent_Seed_ID>  (230) 
TRAIN_055

>  <Parent_Name>  (230) 
PAD

>  <Transformation_Code>  (230) 
trimethoxysilyl

>  <Design_Family>  (230) 
P-N-Si-S

>  <Preparation_Type>  (230) 
Additive + Secondary Crosslinking

>  <Synthesis_Level>  (230) 
B

>  <Parent_Tanimoto_r3>  (230) 
0.8108108108108109

>  <Max_Train_Tanimoto_r3>  (230) 
0.8108108108108109

>  <Risk_Flags>  (230) 
none

$$$$
CAND_R2_231 | PAD-triethoxysilyl
     RDKit          2D

 84 96  0  0  0  0  0  0  0  0999 V2000
  -13.1383   -0.9654    0.0000 C   0  0  0  0  0  0  0  0  0  0  0  0
  -12.1741   -2.1145    0.0000 C   0  0  0  0  0  0  0  0  0  0  0  0
  -12.6872   -3.5240    0.0000 O   0  0  0  0  0  0  0  0  0  0  0  0
  -11.7230   -4.6731    0.0000 Si  0  0  0  0  0  4  0  0  0  0  0  0
  -12.8721   -5.6373    0.0000 O   0  0  0  0  0  0  0  0  0  0  0  0
  -14.2816   -5.1242    0.0000 C   0  0  0  0  0  0  0  0  0  0  0  0
  -15.4307   -6.0884    0.0000 C   0  0  0  0  0  0  0  0  0  0  0  0
  -10.5739   -3.7089    0.0000 O   0  0  0  0  0  0  0  0  0  0  0  0
  -10.8344   -2.2317    0.0000 C   0  0  0  0  0  0  0  0  0  0  0  0
   -9.6853   -1.2675    0.0000 C   0  0  0  0  0  0  0  0  0  0  0  0
  -10.7588   -5.8222    0.0000 C   0  0  0  0  0  0  0  0  0  0  0  0
  -11.2718   -7.2317    0.0000 C   0  0  0  0  0  0  0  0  0  0  0  0
  -10.3077   -8.3808    0.0000 C   0  0  0  0  0  0  0  0  0  0  0  0
   -8.8304   -8.1203    0.0000 C   0  0  0  0  0  0  0  0  0  0  0  0
   -7.6484   -9.0438    0.0000 N   0  0  0  0  0  0  0  0  0  0  0  0
   -6.4049   -8.2050    0.0000 C   0  0  0  0  0  0  0  0  0  0  0  0
   -4.9953   -8.7180    0.0000 N   0  0  0  0  0  0  0  0  0  0  0  0
   -4.7349  -10.1952    0.0000 C   0  0  0  0  0  0  0  0  0  0  0  0
   -3.3253  -10.7083    0.0000 C   0  0  0  0  0  0  0  0  0  0  0  0
   -3.0648  -12.1855    0.0000 C   0  0  0  0  0  0  0  0  0  0  0  0
   -1.6553  -12.6985    0.0000 C   0  0  0  0  0  0  0  0  0  0  0  0
   -0.5062  -11.7343    0.0000 C   0  0  0  0  0  0  0  0  0  0  0  0
    0.9033  -12.2474    0.0000 O   0  0  0  0  0  0  0  0  0  0  0  0
    2.0524  -11.2832    0.0000 P   0  0  0  0  0  0  0  0  0  0  0  0
    1.0882  -10.1341    0.0000 O   0  0  0  0  0  0  0  0  0  0  0  0
    3.2014  -10.3190    0.0000 O   0  0  0  0  0  0  0  0  0  0  0  0
    2.9410   -8.8418    0.0000 C   0  0  0  0  0  0  0  0  0  0  0  0
    4.0900   -7.8776    0.0000 C   0  0  0  0  0  0  0  0  0  0  0  0
    3.8296   -6.4004    0.0000 C   0  0  0  0  0  0  0  0  0  0  0  0
    2.4200   -5.8874    0.0000 C   0  0  0  0  0  0  0  0  0  0  0  0
    2.1595   -4.4101    0.0000 C   0  0  0  0  0  0  0  0  0  0  0  0
    3.3086   -3.4460    0.0000 N   0  0  0  0  0  0  0  0  0  0  0  0
    4.7181   -3.9590    0.0000 C   0  0  0  0  0  0  0  0  0  0  0  0
    5.1316   -5.4009    0.0000 N   0  0  0  0  0  0  0  0  0  0  0  0
    6.6307   -5.4532    0.0000 C   0  0  0  0  0  0  0  0  0  0  0  0
    7.5949   -6.6023    0.0000 C   0  0  0  0  0  0  0  0  0  0  0  0
    9.0721   -6.3418    0.0000 C   0  0  0  0  0  0  0  0  0  0  0  0
    9.5851   -4.9323    0.0000 C   0  0  0  0  0  0  0  0  0  0  0  0
    8.6209   -3.7832    0.0000 C   0  0  0  0  0  0  0  0  0  0  0  0
    7.1437   -4.0437    0.0000 C   0  0  0  0  0  0  0  0  0  0  0  0
    5.9617   -3.1202    0.0000 S   0  0  0  0  0  0  0  0  0  0  0  0
    0.7500   -3.8971    0.0000 P   0  0  0  0  0  0  0  0  0  0  0  0
    0.4895   -5.3743    0.0000 O   0  0  0  0  0  0  0  0  0  0  0  0
    1.5000   -2.5981    0.0000 O   0  0  0  0  0  0  0  0  0  0  0  0
    0.7500   -1.2990    0.0000 C   0  0  0  0  0  0  0  0  0  0  0  0
    1.5000    0.0000    0.0000 C   0  0  0  0  0  0  0  0  0  0  0  0
    0.7500    1.2990    0.0000 C   0  0  0  0  0  0  0  0  0  0  0  0
   -0.7500    1.2990    0.0000 C   0  0  0  0  0  0  0  0  0  0  0  0
   -1.5000   -0.0000    0.0000 C   0  0  0  0  0  0  0  0  0  0  0  0
   -0.7500   -1.2990    0.0000 C   0  0  0  0  0  0  0  0  0  0  0  0
   -1.5000   -2.5981    0.0000 C   0  0  0  0  0  0  0  0  0  0  0  0
   -3.0000   -2.5981    0.0000 C   0  0  0  0  0  0  0  0  0  0  0  0
   -3.7500   -3.8971    0.0000 C   0  0  0  0  0  0  0  0  0  0  0  0
   -3.0000   -5.1962    0.0000 C   0  0  0  0  0  0  0  0  0  0  0  0
   -1.5000   -5.1962    0.0000 C   0  0  0  0  0  0  0  0  0  0  0  0
   -0.7500   -3.8971    0.0000 C   0  0  0  0  0  0  0  0  0  0  0  0
    1.2709   -6.8515    0.0000 C   0  0  0  0  0  0  0  0  0  0  0  0
    1.5314   -8.3287    0.0000 C   0  0  0  0  0  0  0  0  0  0  0  0
    3.0165  -12.4322    0.0000 C   0  0  0  0  0  0  0  0  0  0  0  0
    4.4938  -12.1718    0.0000 C   0  0  0  0  0  0  0  0  0  0  0  0
    5.4579  -13.3208    0.0000 C   0  0  0  0  0  0  0  0  0  0  0  0
    4.9449  -14.7304    0.0000 C   0  0  0  0  0  0  0  0  0  0  0  0
    3.4677  -14.9908    0.0000 C   0  0  0  0  0  0  0  0  0  0  0  0
    2.5035  -13.8418    0.0000 C   0  0  0  0  0  0  0  0  0  0  0  0
   -0.7667  -10.2571    0.0000 C   0  0  0  0  0  0  0  0  0  0  0  0
   -2.1763   -9.7441    0.0000 C   0  0  0  0  0  0  0  0  0  0  0  0
   -5.8839  -11.1594    0.0000 P   0  0  0  0  0  0  0  0  0  0  0  0
   -6.6339   -9.8604    0.0000 O   0  0  0  0  0  0  0  0  0  0  0  0
   -4.7349  -12.1236    0.0000 O   0  0  0  0  0  0  0  0  0  0  0  0
   -4.9953  -13.6008    0.0000 C   0  0  0  0  0  0  0  0  0  0  0  0
   -3.8463  -14.5650    0.0000 C   0  0  0  0  0  0  0  0  0  0  0  0
   -4.1067  -16.0422    0.0000 C   0  0  0  0  0  0  0  0  0  0  0  0
   -5.5163  -16.5552    0.0000 C   0  0  0  0  0  0  0  0  0  0  0  0
   -6.6653  -15.5910    0.0000 C   0  0  0  0  0  0  0  0  0  0  0  0
   -6.4049  -14.1138    0.0000 C   0  0  0  0  0  0  0  0  0  0  0  0
   -7.5539  -13.1497    0.0000 C   0  0  0  0  0  0  0  0  0  0  0  0
   -8.9635  -13.6627    0.0000 C   0  0  0  0  0  0  0  0  0  0  0  0
  -10.1125  -12.6985    0.0000 C   0  0  0  0  0  0  0  0  0  0  0  0
   -9.8521  -11.2213    0.0000 C   0  0  0  0  0  0  0  0  0  0  0  0
   -8.4425  -10.7083    0.0000 C   0  0  0  0  0  0  0  0  0  0  0  0
   -7.2935  -11.6724    0.0000 C   0  0  0  0  0  0  0  0  0  0  0  0
   -6.8183   -6.7631    0.0000 S   0  0  0  0  0  0  0  0  0  0  0  0
   -8.3174   -6.7107    0.0000 C   0  0  0  0  0  0  0  0  0  0  0  0
   -9.2816   -5.5617    0.0000 C   0  0  0  0  0  0  0  0  0  0  0  0
  1  2  1  0
  2  3  1  0
  3  4  1  0
  4  5  1  0
  5  6  1  0
  6  7  1  0
  4  8  1  0
  8  9  1  0
  9 10  1  0
  4 11  1  0
 11 12  2  0
 12 13  1  0
 13 14  2  0
 14 15  1  0
 15 16  2  0
 16 17  1  0
 17 18  1  0
 18 19  1  0
 19 20  2  0
 20 21  1  0
 21 22  2  0
 22 23  1  0
 23 24  1  0
 24 25  2  0
 24 26  1  0
 26 27  1  0
 27 28  2  0
 28 29  1  0
 29 30  2  0
 30 31  1  0
 31 32  1  0
 32 33  1  0
 33 34  2  0
 34 35  1  0
 35 36  2  0
 36 37  1  0
 37 38  2  0
 38 39  1  0
 39 40  2  0
 40 41  1  0
 31 42  1  0
 42 43  2  0
 42 44  1  0
 44 45  1  0
 45 46  2  0
 46 47  1  0
 47 48  2  0
 48 49  1  0
 49 50  2  0
 50 51  1  0
 51 52  2  0
 52 53  1  0
 53 54  2  0
 54 55  1  0
 55 56  2  0
 30 57  1  0
 57 58  2  0
 24 59  1  0
 59 60  2  0
 60 61  1  0
 61 62  2  0
 62 63  1  0
 63 64  2  0
 22 65  1  0
 65 66  2  0
 18 67  1  0
 67 68  2  0
 67 69  1  0
 69 70  1  0
 70 71  2  0
 71 72  1  0
 72 73  2  0
 73 74  1  0
 74 75  2  0
 75 76  1  0
 76 77  2  0
 77 78  1  0
 78 79  2  0
 79 80  1  0
 80 81  2  0
 16 82  1  0
 82 83  1  0
 83 84  2  0
 84 11  1  0
 83 14  1  0
 66 19  1  0
 81 67  1  0
 58 27  1  0
 64 59  1  0
 75 70  1  0
 81 76  1  0
 41 33  1  0
 56 42  1  0
 40 35  1  0
 50 45  1  0
 56 51  1  0
M  END
>  <Candidate_ID>  (231) 
CAND_R2_231

>  <Candidate_Name>  (231) 
PAD-triethoxysilyl

>  <Parent_Seed_ID>  (231) 
TRAIN_055

>  <Parent_Name>  (231) 
PAD

>  <Transformation_Code>  (231) 
triethoxysilyl

>  <Design_Family>  (231) 
P-N-Si-S

>  <Preparation_Type>  (231) 
Additive + Secondary Crosslinking

>  <Synthesis_Level>  (231) 
B

>  <Parent_Tanimoto_r3>  (231) 
0.7894736842105263

>  <Max_Train_Tanimoto_r3>  (231) 
0.7894736842105263

>  <Risk_Flags>  (231) 
high molecular weight

$$$$
CAND_R2_232 | PAD-disiloxane
     RDKit          2D

 82 94  0  0  0  0  0  0  0  0999 V2000
  -13.5837   -1.6015    0.0000 C   0  0  0  0  0  0  0  0  0  0  0  0
  -12.1741   -2.1145    0.0000 Si  0  0  0  0  0  4  0  0  0  0  0  0
  -10.7646   -2.6275    0.0000 C   0  0  0  0  0  0  0  0  0  0  0  0
  -11.6611   -0.7049    0.0000 C   0  0  0  0  0  0  0  0  0  0  0  0
  -12.6872   -3.5240    0.0000 O   0  0  0  0  0  0  0  0  0  0  0  0
  -11.7230   -4.6731    0.0000 Si  0  0  0  0  0  4  0  0  0  0  0  0
  -10.5739   -3.7089    0.0000 C   0  0  0  0  0  0  0  0  0  0  0  0
  -12.8721   -5.6373    0.0000 C   0  0  0  0  0  0  0  0  0  0  0  0
  -10.7588   -5.8222    0.0000 C   0  0  0  0  0  0  0  0  0  0  0  0
  -11.2718   -7.2317    0.0000 C   0  0  0  0  0  0  0  0  0  0  0  0
  -10.3077   -8.3808    0.0000 C   0  0  0  0  0  0  0  0  0  0  0  0
   -8.8304   -8.1203    0.0000 C   0  0  0  0  0  0  0  0  0  0  0  0
   -7.6484   -9.0438    0.0000 N   0  0  0  0  0  0  0  0  0  0  0  0
   -6.4049   -8.2050    0.0000 C   0  0  0  0  0  0  0  0  0  0  0  0
   -4.9953   -8.7180    0.0000 N   0  0  0  0  0  0  0  0  0  0  0  0
   -4.7349  -10.1952    0.0000 C   0  0  0  0  0  0  0  0  0  0  0  0
   -3.3253  -10.7083    0.0000 C   0  0  0  0  0  0  0  0  0  0  0  0
   -3.0648  -12.1855    0.0000 C   0  0  0  0  0  0  0  0  0  0  0  0
   -1.6553  -12.6985    0.0000 C   0  0  0  0  0  0  0  0  0  0  0  0
   -0.5062  -11.7343    0.0000 C   0  0  0  0  0  0  0  0  0  0  0  0
    0.9033  -12.2474    0.0000 O   0  0  0  0  0  0  0  0  0  0  0  0
    2.0524  -11.2832    0.0000 P   0  0  0  0  0  0  0  0  0  0  0  0
    1.0882  -10.1341    0.0000 O   0  0  0  0  0  0  0  0  0  0  0  0
    3.2014  -10.3190    0.0000 O   0  0  0  0  0  0  0  0  0  0  0  0
    2.9410   -8.8418    0.0000 C   0  0  0  0  0  0  0  0  0  0  0  0
    4.0900   -7.8776    0.0000 C   0  0  0  0  0  0  0  0  0  0  0  0
    3.8296   -6.4004    0.0000 C   0  0  0  0  0  0  0  0  0  0  0  0
    2.4200   -5.8874    0.0000 C   0  0  0  0  0  0  0  0  0  0  0  0
    2.1595   -4.4101    0.0000 C   0  0  0  0  0  0  0  0  0  0  0  0
    3.3086   -3.4460    0.0000 N   0  0  0  0  0  0  0  0  0  0  0  0
    4.7181   -3.9590    0.0000 C   0  0  0  0  0  0  0  0  0  0  0  0
    5.1316   -5.4009    0.0000 N   0  0  0  0  0  0  0  0  0  0  0  0
    6.6307   -5.4532    0.0000 C   0  0  0  0  0  0  0  0  0  0  0  0
    7.5949   -6.6023    0.0000 C   0  0  0  0  0  0  0  0  0  0  0  0
    9.0721   -6.3418    0.0000 C   0  0  0  0  0  0  0  0  0  0  0  0
    9.5851   -4.9323    0.0000 C   0  0  0  0  0  0  0  0  0  0  0  0
    8.6209   -3.7832    0.0000 C   0  0  0  0  0  0  0  0  0  0  0  0
    7.1437   -4.0437    0.0000 C   0  0  0  0  0  0  0  0  0  0  0  0
    5.9617   -3.1202    0.0000 S   0  0  0  0  0  0  0  0  0  0  0  0
    0.7500   -3.8971    0.0000 P   0  0  0  0  0  0  0  0  0  0  0  0
    0.4895   -5.3743    0.0000 O   0  0  0  0  0  0  0  0  0  0  0  0
    1.5000   -2.5981    0.0000 O   0  0  0  0  0  0  0  0  0  0  0  0
    0.7500   -1.2990    0.0000 C   0  0  0  0  0  0  0  0  0  0  0  0
    1.5000   -0.0000    0.0000 C   0  0  0  0  0  0  0  0  0  0  0  0
    0.7500    1.2990    0.0000 C   0  0  0  0  0  0  0  0  0  0  0  0
   -0.7500    1.2990    0.0000 C   0  0  0  0  0  0  0  0  0  0  0  0
   -1.5000   -0.0000    0.0000 C   0  0  0  0  0  0  0  0  0  0  0  0
   -0.7500   -1.2990    0.0000 C   0  0  0  0  0  0  0  0  0  0  0  0
   -1.5000   -2.5981    0.0000 C   0  0  0  0  0  0  0  0  0  0  0  0
   -3.0000   -2.5981    0.0000 C   0  0  0  0  0  0  0  0  0  0  0  0
   -3.7500   -3.8971    0.0000 C   0  0  0  0  0  0  0  0  0  0  0  0
   -3.0000   -5.1962    0.0000 C   0  0  0  0  0  0  0  0  0  0  0  0
   -1.5000   -5.1962    0.0000 C   0  0  0  0  0  0  0  0  0  0  0  0
   -0.7500   -3.8971    0.0000 C   0  0  0  0  0  0  0  0  0  0  0  0
    1.2709   -6.8515    0.0000 C   0  0  0  0  0  0  0  0  0  0  0  0
    1.5314   -8.3287    0.0000 C   0  0  0  0  0  0  0  0  0  0  0  0
    3.0165  -12.4322    0.0000 C   0  0  0  0  0  0  0  0  0  0  0  0
    4.4938  -12.1718    0.0000 C   0  0  0  0  0  0  0  0  0  0  0  0
    5.4579  -13.3208    0.0000 C   0  0  0  0  0  0  0  0  0  0  0  0
    4.9449  -14.7304    0.0000 C   0  0  0  0  0  0  0  0  0  0  0  0
    3.4677  -14.9908    0.0000 C   0  0  0  0  0  0  0  0  0  0  0  0
    2.5035  -13.8418    0.0000 C   0  0  0  0  0  0  0  0  0  0  0  0
   -0.7667  -10.2571    0.0000 C   0  0  0  0  0  0  0  0  0  0  0  0
   -2.1763   -9.7441    0.0000 C   0  0  0  0  0  0  0  0  0  0  0  0
   -5.8839  -11.1594    0.0000 P   0  0  0  0  0  0  0  0  0  0  0  0
   -6.6339   -9.8604    0.0000 O   0  0  0  0  0  0  0  0  0  0  0  0
   -4.7349  -12.1236    0.0000 O   0  0  0  0  0  0  0  0  0  0  0  0
   -4.9953  -13.6008    0.0000 C   0  0  0  0  0  0  0  0  0  0  0  0
   -3.8463  -14.5650    0.0000 C   0  0  0  0  0  0  0  0  0  0  0  0
   -4.1067  -16.0422    0.0000 C   0  0  0  0  0  0  0  0  0  0  0  0
   -5.5163  -16.5552    0.0000 C   0  0  0  0  0  0  0  0  0  0  0  0
   -6.6653  -15.5910    0.0000 C   0  0  0  0  0  0  0  0  0  0  0  0
   -6.4049  -14.1138    0.0000 C   0  0  0  0  0  0  0  0  0  0  0  0
   -7.5539  -13.1497    0.0000 C   0  0  0  0  0  0  0  0  0  0  0  0
   -8.9635  -13.6627    0.0000 C   0  0  0  0  0  0  0  0  0  0  0  0
  -10.1125  -12.6985    0.0000 C   0  0  0  0  0  0  0  0  0  0  0  0
   -9.8521  -11.2213    0.0000 C   0  0  0  0  0  0  0  0  0  0  0  0
   -8.4425  -10.7083    0.0000 C   0  0  0  0  0  0  0  0  0  0  0  0
   -7.2935  -11.6724    0.0000 C   0  0  0  0  0  0  0  0  0  0  0  0
   -6.8183   -6.7631    0.0000 S   0  0  0  0  0  0  0  0  0  0  0  0
   -8.3174   -6.7107    0.0000 C   0  0  0  0  0  0  0  0  0  0  0  0
   -9.2816   -5.5617    0.0000 C   0  0  0  0  0  0  0  0  0  0  0  0
  1  2  1  0
  2  3  1  0
  2  4  1  0
  2  5  1  0
  5  6  1  0
  6  7  1  0
  6  8  1  0
  6  9  1  0
  9 10  2  0
 10 11  1  0
 11 12  2  0
 12 13  1  0
 13 14  2  0
 14 15  1  0
 15 16  1  0
 16 17  1  0
 17 18  2  0
 18 19  1  0
 19 20  2  0
 20 21  1  0
 21 22  1  0
 22 23  2  0
 22 24  1  0
 24 25  1  0
 25 26  2  0
 26 27  1  0
 27 28  2  0
 28 29  1  0
 29 30  1  0
 30 31  1  0
 31 32  2  0
 32 33  1  0
 33 34  2  0
 34 35  1  0
 35 36  2  0
 36 37  1  0
 37 38  2  0
 38 39  1  0
 29 40  1  0
 40 41  2  0
 40 42  1  0
 42 43  1  0
 43 44  2  0
 44 45  1  0
 45 46  2  0
 46 47  1  0
 47 48  2  0
 48 49  1  0
 49 50  2  0
 50 51  1  0
 51 52  2  0
 52 53  1  0
 53 54  2  0
 28 55  1  0
 55 56  2  0
 22 57  1  0
 57 58  2  0
 58 59  1  0
 59 60  2  0
 60 61  1  0
 61 62  2  0
 20 63  1  0
 63 64  2  0
 16 65  1  0
 65 66  2  0
 65 67  1  0
 67 68  1  0
 68 69  2  0
 69 70  1  0
 70 71  2  0
 71 72  1  0
 72 73  2  0
 73 74  1  0
 74 75  2  0
 75 76  1  0
 76 77  2  0
 77 78  1  0
 78 79  2  0
 14 80  1  0
 80 81  1  0
 81 82  2  0
 82  9  1  0
 81 12  1  0
 64 17  1  0
 79 65  1  0
 56 25  1  0
 62 57  1  0
 73 68  1  0
 79 74  1  0
 39 31  1  0
 54 40  1  0
 38 33  1  0
 48 43  1  0
 54 49  1  0
M  END
>  <Candidate_ID>  (232) 
CAND_R2_232

>  <Candidate_Name>  (232) 
PAD-disiloxane

>  <Parent_Seed_ID>  (232) 
TRAIN_055

>  <Parent_Name>  (232) 
PAD

>  <Transformation_Code>  (232) 
disiloxane

>  <Design_Family>  (232) 
P-N-Si-S

>  <Preparation_Type>  (232) 
Additive

>  <Synthesis_Level>  (232) 
B

>  <Parent_Tanimoto_r3>  (232) 
0.7964601769911505

>  <Max_Train_Tanimoto_r3>  (232) 
0.7964601769911505

>  <Risk_Flags>  (232) 
high molecular weight

$$$$
CAND_R2_233 | PAD-glycidyloxy
     RDKit          2D

 79 92  0  0  0  0  0  0  0  0999 V2000
    3.0165  -12.4322    0.0000 O   0  0  0  0  0  0  0  0  0  0  0  0
    2.0524  -11.2832    0.0000 P   0  0  0  0  0  0  0  0  0  0  0  0
    3.2014  -10.3190    0.0000 O   0  0  0  0  0  0  0  0  0  0  0  0
    4.6110  -10.8320    0.0000 C   0  0  0  0  0  0  0  0  0  0  0  0
    5.7600   -9.8678    0.0000 C   0  0  0  0  0  0  0  0  0  0  0  0
    7.1696  -10.3809    0.0000 C   0  0  0  0  0  0  0  0  0  0  0  0
    7.4300  -11.8581    0.0000 C   0  0  0  0  0  0  0  0  0  0  0  0
    8.8396  -12.3711    0.0000 C   0  0  0  0  0  0  0  0  0  0  0  0
    9.9887  -11.4069    0.0000 N   0  0  0  0  0  0  0  0  0  0  0  0
    9.7282   -9.9297    0.0000 C   0  0  0  0  0  0  0  0  0  0  0  0
    8.3800   -9.2722    0.0000 N   0  0  0  0  0  0  0  0  0  0  0  0
    8.5887   -7.7868    0.0000 C   0  0  0  0  0  0  0  0  0  0  0  0
    7.6246   -6.6377    0.0000 C   0  0  0  0  0  0  0  0  0  0  0  0
    8.1376   -5.2282    0.0000 C   0  0  0  0  0  0  0  0  0  0  0  0
    9.6148   -4.9677    0.0000 C   0  0  0  0  0  0  0  0  0  0  0  0
   10.5790   -6.1167    0.0000 C   0  0  0  0  0  0  0  0  0  0  0  0
   10.0660   -7.5263    0.0000 C   0  0  0  0  0  0  0  0  0  0  0  0
   10.7702   -8.8507    0.0000 S   0  0  0  0  0  0  0  0  0  0  0  0
    9.1001  -13.8483    0.0000 P   0  0  0  0  0  0  0  0  0  0  0  0
    7.6001  -13.8483    0.0000 O   0  0  0  0  0  0  0  0  0  0  0  0
   10.5096  -13.3353    0.0000 O   0  0  0  0  0  0  0  0  0  0  0  0
   11.6587  -14.2995    0.0000 C   0  0  0  0  0  0  0  0  0  0  0  0
   13.0682  -13.7864    0.0000 C   0  0  0  0  0  0  0  0  0  0  0  0
   14.2173  -14.7506    0.0000 C   0  0  0  0  0  0  0  0  0  0  0  0
   13.9568  -16.2278    0.0000 C   0  0  0  0  0  0  0  0  0  0  0  0
   12.5473  -16.7409    0.0000 C   0  0  0  0  0  0  0  0  0  0  0  0
   11.3982  -15.7767    0.0000 C   0  0  0  0  0  0  0  0  0  0  0  0
    9.9887  -16.2897    0.0000 C   0  0  0  0  0  0  0  0  0  0  0  0
    9.7282  -17.7669    0.0000 C   0  0  0  0  0  0  0  0  0  0  0  0
    8.3186  -18.2800    0.0000 C   0  0  0  0  0  0  0  0  0  0  0  0
    7.1696  -17.3158    0.0000 C   0  0  0  0  0  0  0  0  0  0  0  0
    7.4300  -15.8386    0.0000 C   0  0  0  0  0  0  0  0  0  0  0  0
    8.8396  -15.3255    0.0000 C   0  0  0  0  0  0  0  0  0  0  0  0
    6.2810  -12.8223    0.0000 C   0  0  0  0  0  0  0  0  0  0  0  0
    4.8714  -12.3092    0.0000 C   0  0  0  0  0  0  0  0  0  0  0  0
    0.9033  -12.2474    0.0000 O   0  0  0  0  0  0  0  0  0  0  0  0
    1.1638  -13.7246    0.0000 C   0  0  0  0  0  0  0  0  0  0  0  0
    2.5733  -14.2376    0.0000 C   0  0  0  0  0  0  0  0  0  0  0  0
    2.8338  -15.7148    0.0000 C   0  0  0  0  0  0  0  0  0  0  0  0
    1.6847  -16.6790    0.0000 C   0  0  0  0  0  0  0  0  0  0  0  0
    1.9452  -18.1562    0.0000 C   0  0  0  0  0  0  0  0  0  0  0  0
    3.3547  -18.6692    0.0000 N   0  0  0  0  0  0  0  0  0  0  0  0
    3.6152  -20.1464    0.0000 C   0  0  0  0  0  0  0  0  0  0  0  0
    4.9634  -20.8040    0.0000 N   0  0  0  0  0  0  0  0  0  0  0  0
    4.7546  -22.2894    0.0000 C   0  0  0  0  0  0  0  0  0  0  0  0
    5.7188  -23.4385    0.0000 C   0  0  0  0  0  0  0  0  0  0  0  0
    5.2058  -24.8480    0.0000 C   0  0  0  0  0  0  0  0  0  0  0  0
    3.7286  -25.1085    0.0000 C   0  0  0  0  0  0  0  0  0  0  0  0
    3.2155  -26.5180    0.0000 O   0  0  0  0  0  0  0  0  0  0  0  0
    4.1797  -27.6671    0.0000 C   0  0  0  0  0  0  0  0  0  0  0  0
    3.6667  -29.0766    0.0000 C   0  0  0  0  0  0  0  0  0  0  0  0
    2.5176  -30.0408    0.0000 C   0  0  0  0  0  0  0  0  0  0  0  0
    3.9272  -30.5538    0.0000 O   0  0  0  0  0  0  0  0  0  0  0  0
    2.7644  -23.9594    0.0000 C   0  0  0  0  0  0  0  0  0  0  0  0
    3.2774  -22.5499    0.0000 C   0  0  0  0  0  0  0  0  0  0  0  0
    2.5732  -21.2255    0.0000 S   0  0  0  0  0  0  0  0  0  0  0  0
    0.7961  -19.1204    0.0000 P   0  0  0  0  0  0  0  0  0  0  0  0
    1.9452  -20.0846    0.0000 O   0  0  0  0  0  0  0  0  0  0  0  0
    0.0461  -17.8213    0.0000 O   0  0  0  0  0  0  0  0  0  0  0  0
   -1.4539  -17.8213    0.0000 C   0  0  0  0  0  0  0  0  0  0  0  0
   -2.2039  -16.5223    0.0000 C   0  0  0  0  0  0  0  0  0  0  0  0
   -3.7039  -16.5223    0.0000 C   0  0  0  0  0  0  0  0  0  0  0  0
   -4.4539  -17.8213    0.0000 C   0  0  0  0  0  0  0  0  0  0  0  0
   -3.7039  -19.1204    0.0000 C   0  0  0  0  0  0  0  0  0  0  0  0
   -2.2039  -19.1204    0.0000 C   0  0  0  0  0  0  0  0  0  0  0  0
   -1.4539  -20.4194    0.0000 C   0  0  0  0  0  0  0  0  0  0  0  0
   -2.2039  -21.7185    0.0000 C   0  0  0  0  0  0  0  0  0  0  0  0
   -1.4539  -23.0175    0.0000 C   0  0  0  0  0  0  0  0  0  0  0  0
    0.0461  -23.0175    0.0000 C   0  0  0  0  0  0  0  0  0  0  0  0
    0.7961  -21.7185    0.0000 C   0  0  0  0  0  0  0  0  0  0  0  0
    0.0461  -20.4194    0.0000 C   0  0  0  0  0  0  0  0  0  0  0  0
    0.2752  -16.1660    0.0000 C   0  0  0  0  0  0  0  0  0  0  0  0
    0.0147  -14.6887    0.0000 C   0  0  0  0  0  0  0  0  0  0  0  0
    1.0882  -10.1341    0.0000 C   0  0  0  0  0  0  0  0  0  0  0  0
    1.6012   -8.7246    0.0000 C   0  0  0  0  0  0  0  0  0  0  0  0
    0.6370   -7.5755    0.0000 C   0  0  0  0  0  0  0  0  0  0  0  0
   -0.8402   -7.8360    0.0000 C   0  0  0  0  0  0  0  0  0  0  0  0
   -1.3532   -9.2455    0.0000 C   0  0  0  0  0  0  0  0  0  0  0  0
   -0.3890  -10.3946    0.0000 C   0  0  0  0  0  0  0  0  0  0  0  0
  1  2  2  0
  2  3  1  0
  3  4  1  0
  4  5  2  0
  5  6  1  0
  6  7  2  0
  7  8  1  0
  8  9  1  0
  9 10  1  0
 10 11  2  0
 11 12  1  0
 12 13  2  0
 13 14  1  0
 14 15  2  0
 15 16  1  0
 16 17  2  0
 17 18  1  0
  8 19  1  0
 19 20  2  0
 19 21  1  0
 21 22  1  0
 22 23  2  0
 23 24  1  0
 24 25  2  0
 25 26  1  0
 26 27  2  0
 27 28  1  0
 28 29  2  0
 29 30  1  0
 30 31  2  0
 31 32  1  0
 32 33  2  0
  7 34  1  0
 34 35  2  0
  2 36  1  0
 36 37  1  0
 37 38  2  0
 38 39  1  0
 39 40  2  0
 40 41  1  0
 41 42  1  0
 42 43  1  0
 43 44  2  0
 44 45  1  0
 45 46  2  0
 46 47  1  0
 47 48  2  0
 48 49  1  0
 49 50  1  0
 50 51  1  0
 51 52  1  0
 52 53  1  0
 48 54  1  0
 54 55  2  0
 55 56  1  0
 41 57  1  0
 57 58  2  0
 57 59  1  0
 59 60  1  0
 60 61  2  0
 61 62  1  0
 62 63  2  0
 63 64  1  0
 64 65  2  0
 65 66  1  0
 66 67  2  0
 67 68  1  0
 68 69  2  0
 69 70  1  0
 70 71  2  0
 40 72  1  0
 72 73  2  0
  2 74  1  0
 74 75  2  0
 75 76  1  0
 76 77  2  0
 77 78  1  0
 78 79  2  0
 35  4  1  0
 73 37  1  0
 79 74  1  0
 18 10  1  0
 33 19  1  0
 56 43  1  0
 71 57  1  0
 17 12  1  0
 27 22  1  0
 33 28  1  0
 55 45  1  0
 65 60  1  0
 71 66  1  0
 53 51  1  0
M  END
>  <Candidate_ID>  (233) 
CAND_R2_233

>  <Candidate_Name>  (233) 
PAD-glycidyloxy

>  <Parent_Seed_ID>  (233) 
TRAIN_055

>  <Parent_Name>  (233) 
PAD

>  <Transformation_Code>  (233) 
glycidyloxy

>  <Design_Family>  (233) 
P-N-S

>  <Preparation_Type>  (233) 
Co-curing

>  <Synthesis_Level>  (233) 
B

>  <Parent_Tanimoto_r3>  (233) 
0.7758620689655172

>  <Max_Train_Tanimoto_r3>  (233) 
0.7758620689655172

>  <Risk_Flags>  (233) 
none

$$$$
CAND_R2_234 | PAD-diaminotriazine
     RDKit          2D

 82 95  0  0  0  0  0  0  0  0999 V2000
  -15.6416   -4.0450    0.0000 N   0  0  0  0  0  0  0  0  0  0  0  0
  -14.1644   -3.7845    0.0000 C   0  0  0  0  0  0  0  0  0  0  0  0
  -13.6514   -2.3750    0.0000 N   0  0  0  0  0  0  0  0  0  0  0  0
  -12.1741   -2.1145    0.0000 C   0  0  0  0  0  0  0  0  0  0  0  0
  -11.6611   -0.7049    0.0000 N   0  0  0  0  0  0  0  0  0  0  0  0
  -11.2100   -3.2635    0.0000 N   0  0  0  0  0  0  0  0  0  0  0  0
  -11.7230   -4.6731    0.0000 C   0  0  0  0  0  0  0  0  0  0  0  0
  -10.7588   -5.8222    0.0000 C   0  0  0  0  0  0  0  0  0  0  0  0
  -11.2718   -7.2317    0.0000 C   0  0  0  0  0  0  0  0  0  0  0  0
  -10.3077   -8.3808    0.0000 C   0  0  0  0  0  0  0  0  0  0  0  0
   -8.8304   -8.1203    0.0000 C   0  0  0  0  0  0  0  0  0  0  0  0
   -7.6484   -9.0438    0.0000 N   0  0  0  0  0  0  0  0  0  0  0  0
   -6.4049   -8.2050    0.0000 C   0  0  0  0  0  0  0  0  0  0  0  0
   -4.9953   -8.7180    0.0000 N   0  0  0  0  0  0  0  0  0  0  0  0
   -4.7349  -10.1952    0.0000 C   0  0  0  0  0  0  0  0  0  0  0  0
   -3.3253  -10.7083    0.0000 C   0  0  0  0  0  0  0  0  0  0  0  0
   -3.0648  -12.1855    0.0000 C   0  0  0  0  0  0  0  0  0  0  0  0
   -1.6553  -12.6985    0.0000 C   0  0  0  0  0  0  0  0  0  0  0  0
   -0.5062  -11.7343    0.0000 C   0  0  0  0  0  0  0  0  0  0  0  0
    0.9033  -12.2474    0.0000 O   0  0  0  0  0  0  0  0  0  0  0  0
    2.0524  -11.2832    0.0000 P   0  0  0  0  0  0  0  0  0  0  0  0
    1.0882  -10.1341    0.0000 O   0  0  0  0  0  0  0  0  0  0  0  0
    3.2014  -10.3190    0.0000 O   0  0  0  0  0  0  0  0  0  0  0  0
    2.9410   -8.8418    0.0000 C   0  0  0  0  0  0  0  0  0  0  0  0
    4.0900   -7.8776    0.0000 C   0  0  0  0  0  0  0  0  0  0  0  0
    3.8296   -6.4004    0.0000 C   0  0  0  0  0  0  0  0  0  0  0  0
    2.4200   -5.8874    0.0000 C   0  0  0  0  0  0  0  0  0  0  0  0
    2.1595   -4.4101    0.0000 C   0  0  0  0  0  0  0  0  0  0  0  0
    3.3086   -3.4460    0.0000 N   0  0  0  0  0  0  0  0  0  0  0  0
    4.7181   -3.9590    0.0000 C   0  0  0  0  0  0  0  0  0  0  0  0
    5.1316   -5.4009    0.0000 N   0  0  0  0  0  0  0  0  0  0  0  0
    6.6307   -5.4532    0.0000 C   0  0  0  0  0  0  0  0  0  0  0  0
    7.5949   -6.6023    0.0000 C   0  0  0  0  0  0  0  0  0  0  0  0
    9.0721   -6.3418    0.0000 C   0  0  0  0  0  0  0  0  0  0  0  0
    9.5851   -4.9323    0.0000 C   0  0  0  0  0  0  0  0  0  0  0  0
    8.6209   -3.7832    0.0000 C   0  0  0  0  0  0  0  0  0  0  0  0
    7.1437   -4.0437    0.0000 C   0  0  0  0  0  0  0  0  0  0  0  0
    5.9617   -3.1202    0.0000 S   0  0  0  0  0  0  0  0  0  0  0  0
    0.7500   -3.8971    0.0000 P   0  0  0  0  0  0  0  0  0  0  0  0
    0.4895   -5.3743    0.0000 O   0  0  0  0  0  0  0  0  0  0  0  0
    1.5000   -2.5981    0.0000 O   0  0  0  0  0  0  0  0  0  0  0  0
    0.7500   -1.2990    0.0000 C   0  0  0  0  0  0  0  0  0  0  0  0
    1.5000   -0.0000    0.0000 C   0  0  0  0  0  0  0  0  0  0  0  0
    0.7500    1.2990    0.0000 C   0  0  0  0  0  0  0  0  0  0  0  0
   -0.7500    1.2990    0.0000 C   0  0  0  0  0  0  0  0  0  0  0  0
   -1.5000   -0.0000    0.0000 C   0  0  0  0  0  0  0  0  0  0  0  0
   -0.7500   -1.2990    0.0000 C   0  0  0  0  0  0  0  0  0  0  0  0
   -1.5000   -2.5981    0.0000 C   0  0  0  0  0  0  0  0  0  0  0  0
   -3.0000   -2.5981    0.0000 C   0  0  0  0  0  0  0  0  0  0  0  0
   -3.7500   -3.8971    0.0000 C   0  0  0  0  0  0  0  0  0  0  0  0
   -3.0000   -5.1962    0.0000 C   0  0  0  0  0  0  0  0  0  0  0  0
   -1.5000   -5.1962    0.0000 C   0  0  0  0  0  0  0  0  0  0  0  0
   -0.7500   -3.8971    0.0000 C   0  0  0  0  0  0  0  0  0  0  0  0
    1.2709   -6.8515    0.0000 C   0  0  0  0  0  0  0  0  0  0  0  0
    1.5314   -8.3287    0.0000 C   0  0  0  0  0  0  0  0  0  0  0  0
    3.0165  -12.4322    0.0000 C   0  0  0  0  0  0  0  0  0  0  0  0
    4.4938  -12.1718    0.0000 C   0  0  0  0  0  0  0  0  0  0  0  0
    5.4579  -13.3208    0.0000 C   0  0  0  0  0  0  0  0  0  0  0  0
    4.9449  -14.7304    0.0000 C   0  0  0  0  0  0  0  0  0  0  0  0
    3.4677  -14.9908    0.0000 C   0  0  0  0  0  0  0  0  0  0  0  0
    2.5035  -13.8418    0.0000 C   0  0  0  0  0  0  0  0  0  0  0  0
   -0.7667  -10.2571    0.0000 C   0  0  0  0  0  0  0  0  0  0  0  0
   -2.1763   -9.7441    0.0000 C   0  0  0  0  0  0  0  0  0  0  0  0
   -5.8839  -11.1594    0.0000 P   0  0  0  0  0  0  0  0  0  0  0  0
   -6.6339   -9.8604    0.0000 O   0  0  0  0  0  0  0  0  0  0  0  0
   -4.7349  -12.1236    0.0000 O   0  0  0  0  0  0  0  0  0  0  0  0
   -4.9953  -13.6008    0.0000 C   0  0  0  0  0  0  0  0  0  0  0  0
   -3.8463  -14.5650    0.0000 C   0  0  0  0  0  0  0  0  0  0  0  0
   -4.1067  -16.0422    0.0000 C   0  0  0  0  0  0  0  0  0  0  0  0
   -5.5163  -16.5552    0.0000 C   0  0  0  0  0  0  0  0  0  0  0  0
   -6.6653  -15.5910    0.0000 C   0  0  0  0  0  0  0  0  0  0  0  0
   -6.4049  -14.1138    0.0000 C   0  0  0  0  0  0  0  0  0  0  0  0
   -7.5539  -13.1497    0.0000 C   0  0  0  0  0  0  0  0  0  0  0  0
   -8.9635  -13.6627    0.0000 C   0  0  0  0  0  0  0  0  0  0  0  0
  -10.1125  -12.6985    0.0000 C   0  0  0  0  0  0  0  0  0  0  0  0
   -9.8521  -11.2213    0.0000 C   0  0  0  0  0  0  0  0  0  0  0  0
   -8.4425  -10.7083    0.0000 C   0  0  0  0  0  0  0  0  0  0  0  0
   -7.2935  -11.6724    0.0000 C   0  0  0  0  0  0  0  0  0  0  0  0
   -6.8183   -6.7631    0.0000 S   0  0  0  0  0  0  0  0  0  0  0  0
   -8.3174   -6.7107    0.0000 C   0  0  0  0  0  0  0  0  0  0  0  0
   -9.2816   -5.5617    0.0000 C   0  0  0  0  0  0  0  0  0  0  0  0
  -13.2002   -4.9336    0.0000 N   0  0  0  0  0  0  0  0  0  0  0  0
  1  2  1  0
  2  3  2  0
  3  4  1  0
  4  5  1  0
  4  6  2  0
  6  7  1  0
  7  8  1  0
  8  9  2  0
  9 10  1  0
 10 11  2  0
 11 12  1  0
 12 13  2  0
 13 14  1  0
 14 15  1  0
 15 16  1  0
 16 17  2  0
 17 18  1  0
 18 19  2  0
 19 20  1  0
 20 21  1  0
 21 22  2  0
 21 23  1  0
 23 24  1  0
 24 25  2  0
 25 26  1  0
 26 27  2  0
 27 28  1  0
 28 29  1  0
 29 30  1  0
 30 31  2  0
 31 32  1  0
 32 33  2  0
 33 34  1  0
 34 35  2  0
 35 36  1  0
 36 37  2  0
 37 38  1  0
 28 39  1  0
 39 40  2  0
 39 41  1  0
 41 42  1  0
 42 43  2  0
 43 44  1  0
 44 45  2  0
 45 46  1  0
 46 47  2  0
 47 48  1  0
 48 49  2  0
 49 50  1  0
 50 51  2  0
 51 52  1  0
 52 53  2  0
 27 54  1  0
 54 55  2  0
 21 56  1  0
 56 57  2  0
 57 58  1  0
 58 59  2  0
 59 60  1  0
 60 61  2  0
 19 62  1  0
 62 63  2  0
 15 64  1  0
 64 65  2  0
 64 66  1  0
 66 67  1  0
 67 68  2  0
 68 69  1  0
 69 70  2  0
 70 71  1  0
 71 72  2  0
 72 73  1  0
 73 74  2  0
 74 75  1  0
 75 76  2  0
 76 77  1  0
 77 78  2  0
 13 79  1  0
 79 80  1  0
 80 81  2  0
  7 82  2  0
 82  2  1  0
 81  8  1  0
 80 11  1  0
 63 16  1  0
 78 64  1  0
 55 24  1  0
 61 56  1  0
 72 67  1  0
 78 73  1  0
 38 30  1  0
 53 39  1  0
 37 32  1  0
 47 42  1  0
 53 48  1  0
M  END
>  <Candidate_ID>  (234) 
CAND_R2_234

>  <Candidate_Name>  (234) 
PAD-diaminotriazine

>  <Parent_Seed_ID>  (234) 
TRAIN_055

>  <Parent_Name>  (234) 
PAD

>  <Transformation_Code>  (234) 
diaminotriazine

>  <Design_Family>  (234) 
P-N-S

>  <Preparation_Type>  (234) 
Co-curing

>  <Synthesis_Level>  (234) 
B

>  <Parent_Tanimoto_r3>  (234) 
0.782608695652174

>  <Max_Train_Tanimoto_r3>  (234) 
0.782608695652174

>  <Risk_Flags>  (234) 
none

$$$$
CAND_R2_235 | PAD-piperazine
     RDKit          2D

 80 93  0  0  0  0  0  0  0  0999 V2000
    3.0165  -12.4322    0.0000 O   0  0  0  0  0  0  0  0  0  0  0  0
    2.0524  -11.2832    0.0000 P   0  0  0  0  0  0  0  0  0  0  0  0
    3.2014  -10.3190    0.0000 O   0  0  0  0  0  0  0  0  0  0  0  0
    4.6110  -10.8320    0.0000 C   0  0  0  0  0  0  0  0  0  0  0  0
    5.7600   -9.8678    0.0000 C   0  0  0  0  0  0  0  0  0  0  0  0
    7.1696  -10.3809    0.0000 C   0  0  0  0  0  0  0  0  0  0  0  0
    7.4300  -11.8581    0.0000 C   0  0  0  0  0  0  0  0  0  0  0  0
    8.8396  -12.3711    0.0000 C   0  0  0  0  0  0  0  0  0  0  0  0
    9.9887  -11.4069    0.0000 N   0  0  0  0  0  0  0  0  0  0  0  0
    9.7282   -9.9297    0.0000 C   0  0  0  0  0  0  0  0  0  0  0  0
    8.3800   -9.2722    0.0000 N   0  0  0  0  0  0  0  0  0  0  0  0
    8.5887   -7.7868    0.0000 C   0  0  0  0  0  0  0  0  0  0  0  0
    7.6246   -6.6377    0.0000 C   0  0  0  0  0  0  0  0  0  0  0  0
    8.1376   -5.2282    0.0000 C   0  0  0  0  0  0  0  0  0  0  0  0
    9.6148   -4.9677    0.0000 C   0  0  0  0  0  0  0  0  0  0  0  0
   10.5790   -6.1167    0.0000 C   0  0  0  0  0  0  0  0  0  0  0  0
   10.0660   -7.5263    0.0000 C   0  0  0  0  0  0  0  0  0  0  0  0
   10.7702   -8.8507    0.0000 S   0  0  0  0  0  0  0  0  0  0  0  0
    9.1001  -13.8483    0.0000 P   0  0  0  0  0  0  0  0  0  0  0  0
    7.6001  -13.8483    0.0000 O   0  0  0  0  0  0  0  0  0  0  0  0
   10.5096  -13.3353    0.0000 O   0  0  0  0  0  0  0  0  0  0  0  0
   11.6587  -14.2995    0.0000 C   0  0  0  0  0  0  0  0  0  0  0  0
   13.0682  -13.7864    0.0000 C   0  0  0  0  0  0  0  0  0  0  0  0
   14.2173  -14.7506    0.0000 C   0  0  0  0  0  0  0  0  0  0  0  0
   13.9568  -16.2278    0.0000 C   0  0  0  0  0  0  0  0  0  0  0  0
   12.5473  -16.7409    0.0000 C   0  0  0  0  0  0  0  0  0  0  0  0
   11.3982  -15.7767    0.0000 C   0  0  0  0  0  0  0  0  0  0  0  0
    9.9887  -16.2897    0.0000 C   0  0  0  0  0  0  0  0  0  0  0  0
    9.7282  -17.7669    0.0000 C   0  0  0  0  0  0  0  0  0  0  0  0
    8.3186  -18.2800    0.0000 C   0  0  0  0  0  0  0  0  0  0  0  0
    7.1696  -17.3158    0.0000 C   0  0  0  0  0  0  0  0  0  0  0  0
    7.4300  -15.8386    0.0000 C   0  0  0  0  0  0  0  0  0  0  0  0
    8.8396  -15.3255    0.0000 C   0  0  0  0  0  0  0  0  0  0  0  0
    6.2810  -12.8223    0.0000 C   0  0  0  0  0  0  0  0  0  0  0  0
    4.8714  -12.3092    0.0000 C   0  0  0  0  0  0  0  0  0  0  0  0
    0.9033  -12.2474    0.0000 O   0  0  0  0  0  0  0  0  0  0  0  0
    1.1638  -13.7246    0.0000 C   0  0  0  0  0  0  0  0  0  0  0  0
    2.5733  -14.2376    0.0000 C   0  0  0  0  0  0  0  0  0  0  0  0
    2.8338  -15.7148    0.0000 C   0  0  0  0  0  0  0  0  0  0  0  0
    1.6847  -16.6790    0.0000 C   0  0  0  0  0  0  0  0  0  0  0  0
    1.9452  -18.1562    0.0000 C   0  0  0  0  0  0  0  0  0  0  0  0
    3.3547  -18.6692    0.0000 N   0  0  0  0  0  0  0  0  0  0  0  0
    3.6152  -20.1464    0.0000 C   0  0  0  0  0  0  0  0  0  0  0  0
    4.9634  -20.8040    0.0000 N   0  0  0  0  0  0  0  0  0  0  0  0
    4.7546  -22.2894    0.0000 C   0  0  0  0  0  0  0  0  0  0  0  0
    5.7188  -23.4385    0.0000 C   0  0  0  0  0  0  0  0  0  0  0  0
    5.2058  -24.8480    0.0000 C   0  0  0  0  0  0  0  0  0  0  0  0
    3.7286  -25.1085    0.0000 C   0  0  0  0  0  0  0  0  0  0  0  0
    3.2155  -26.5180    0.0000 N   0  0  0  0  0  0  0  0  0  0  0  0
    4.1797  -27.6671    0.0000 C   0  0  0  0  0  0  0  0  0  0  0  0
    3.6667  -29.0766    0.0000 C   0  0  0  0  0  0  0  0  0  0  0  0
    2.1895  -29.3371    0.0000 N   0  0  0  0  0  0  0  0  0  0  0  0
    1.2253  -28.1880    0.0000 C   0  0  0  0  0  0  0  0  0  0  0  0
    1.7383  -26.7785    0.0000 C   0  0  0  0  0  0  0  0  0  0  0  0
    2.7644  -23.9594    0.0000 C   0  0  0  0  0  0  0  0  0  0  0  0
    3.2774  -22.5499    0.0000 C   0  0  0  0  0  0  0  0  0  0  0  0
    2.5732  -21.2255    0.0000 S   0  0  0  0  0  0  0  0  0  0  0  0
    0.7961  -19.1204    0.0000 P   0  0  0  0  0  0  0  0  0  0  0  0
    1.9452  -20.0846    0.0000 O   0  0  0  0  0  0  0  0  0  0  0  0
    0.0461  -17.8213    0.0000 O   0  0  0  0  0  0  0  0  0  0  0  0
   -1.4539  -17.8213    0.0000 C   0  0  0  0  0  0  0  0  0  0  0  0
   -2.2039  -16.5223    0.0000 C   0  0  0  0  0  0  0  0  0  0  0  0
   -3.7039  -16.5223    0.0000 C   0  0  0  0  0  0  0  0  0  0  0  0
   -4.4539  -17.8213    0.0000 C   0  0  0  0  0  0  0  0  0  0  0  0
   -3.7039  -19.1204    0.0000 C   0  0  0  0  0  0  0  0  0  0  0  0
   -2.2039  -19.1204    0.0000 C   0  0  0  0  0  0  0  0  0  0  0  0
   -1.4539  -20.4194    0.0000 C   0  0  0  0  0  0  0  0  0  0  0  0
   -2.2039  -21.7185    0.0000 C   0  0  0  0  0  0  0  0  0  0  0  0
   -1.4539  -23.0175    0.0000 C   0  0  0  0  0  0  0  0  0  0  0  0
    0.0461  -23.0175    0.0000 C   0  0  0  0  0  0  0  0  0  0  0  0
    0.7961  -21.7185    0.0000 C   0  0  0  0  0  0  0  0  0  0  0  0
    0.0461  -20.4194    0.0000 C   0  0  0  0  0  0  0  0  0  0  0  0
    0.2752  -16.1660    0.0000 C   0  0  0  0  0  0  0  0  0  0  0  0
    0.0147  -14.6887    0.0000 C   0  0  0  0  0  0  0  0  0  0  0  0
    1.0882  -10.1341    0.0000 C   0  0  0  0  0  0  0  0  0  0  0  0
    1.6012   -8.7246    0.0000 C   0  0  0  0  0  0  0  0  0  0  0  0
    0.6370   -7.5755    0.0000 C   0  0  0  0  0  0  0  0  0  0  0  0
   -0.8402   -7.8360    0.0000 C   0  0  0  0  0  0  0  0  0  0  0  0
   -1.3532   -9.2455    0.0000 C   0  0  0  0  0  0  0  0  0  0  0  0
   -0.3890  -10.3946    0.0000 C   0  0  0  0  0  0  0  0  0  0  0  0
  1  2  2  0
  2  3  1  0
  3  4  1  0
  4  5  2  0
  5  6  1  0
  6  7  2  0
  7  8  1  0
  8  9  1  0
  9 10  1  0
 10 11  2  0
 11 12  1  0
 12 13  2  0
 13 14  1  0
 14 15  2  0
 15 16  1  0
 16 17  2  0
 17 18  1  0
  8 19  1  0
 19 20  2  0
 19 21  1  0
 21 22  1  0
 22 23  2  0
 23 24  1  0
 24 25  2  0
 25 26  1  0
 26 27  2  0
 27 28  1  0
 28 29  2  0
 29 30  1  0
 30 31  2  0
 31 32  1  0
 32 33  2  0
  7 34  1  0
 34 35  2  0
  2 36  1  0
 36 37  1  0
 37 38  2  0
 38 39  1  0
 39 40  2  0
 40 41  1  0
 41 42  1  0
 42 43  1  0
 43 44  2  0
 44 45  1  0
 45 46  2  0
 46 47  1  0
 47 48  2  0
 48 49  1  0
 49 50  1  0
 50 51  1  0
 51 52  1  0
 52 53  1  0
 53 54  1  0
 48 55  1  0
 55 56  2  0
 56 57  1  0
 41 58  1  0
 58 59  2  0
 58 60  1  0
 60 61  1  0
 61 62  2  0
 62 63  1  0
 63 64  2  0
 64 65  1  0
 65 66  2  0
 66 67  1  0
 67 68  2  0
 68 69  1  0
 69 70  2  0
 70 71  1  0
 71 72  2  0
 40 73  1  0
 73 74  2  0
  2 75  1  0
 75 76  2  0
 76 77  1  0
 77 78  2  0
 78 79  1  0
 79 80  2  0
 35  4  1  0
 74 37  1  0
 80 75  1  0
 18 10  1  0
 33 19  1  0
 57 43  1  0
 72 58  1  0
 17 12  1  0
 27 22  1  0
 33 28  1  0
 56 45  1  0
 66 61  1  0
 72 67  1  0
 54 49  1  0
M  END
>  <Candidate_ID>  (235) 
CAND_R2_235

>  <Candidate_Name>  (235) 
PAD-piperazine

>  <Parent_Seed_ID>  (235) 
TRAIN_055

>  <Parent_Name>  (235) 
PAD

>  <Transformation_Code>  (235) 
piperazine

>  <Design_Family>  (235) 
P-N-S

>  <Preparation_Type>  (235) 
Co-curing

>  <Synthesis_Level>  (235) 
B

>  <Parent_Tanimoto_r3>  (235) 
0.7627118644067796

>  <Max_Train_Tanimoto_r3>  (235) 
0.7627118644067796

>  <Risk_Flags>  (235) 
none

$$$$
CAND_R2_236 | PAD-benzamide-linker
     RDKit          2D

 83 96  0  0  0  0  0  0  0  0999 V2000
   -9.7327   -3.0031    0.0000 O   0  0  0  0  0  0  0  0  0  0  0  0
  -11.2100   -3.2635    0.0000 C   0  0  0  0  0  0  0  0  0  0  0  0
  -11.7230   -4.6731    0.0000 N   0  0  0  0  0  0  0  0  0  0  0  0
  -10.7588   -5.8222    0.0000 C   0  0  0  0  0  0  0  0  0  0  0  0
  -11.2718   -7.2317    0.0000 C   0  0  0  0  0  0  0  0  0  0  0  0
  -10.3077   -8.3808    0.0000 C   0  0  0  0  0  0  0  0  0  0  0  0
   -8.8304   -8.1203    0.0000 C   0  0  0  0  0  0  0  0  0  0  0  0
   -7.6484   -9.0438    0.0000 N   0  0  0  0  0  0  0  0  0  0  0  0
   -6.4049   -8.2050    0.0000 C   0  0  0  0  0  0  0  0  0  0  0  0
   -4.9953   -8.7180    0.0000 N   0  0  0  0  0  0  0  0  0  0  0  0
   -4.7349  -10.1952    0.0000 C   0  0  0  0  0  0  0  0  0  0  0  0
   -3.3253  -10.7083    0.0000 C   0  0  0  0  0  0  0  0  0  0  0  0
   -3.0648  -12.1855    0.0000 C   0  0  0  0  0  0  0  0  0  0  0  0
   -1.6553  -12.6985    0.0000 C   0  0  0  0  0  0  0  0  0  0  0  0
   -0.5062  -11.7343    0.0000 C   0  0  0  0  0  0  0  0  0  0  0  0
    0.9033  -12.2474    0.0000 O   0  0  0  0  0  0  0  0  0  0  0  0
    2.0524  -11.2832    0.0000 P   0  0  0  0  0  0  0  0  0  0  0  0
    1.0882  -10.1341    0.0000 O   0  0  0  0  0  0  0  0  0  0  0  0
    3.2014  -10.3190    0.0000 O   0  0  0  0  0  0  0  0  0  0  0  0
    2.9410   -8.8418    0.0000 C   0  0  0  0  0  0  0  0  0  0  0  0
    4.0900   -7.8776    0.0000 C   0  0  0  0  0  0  0  0  0  0  0  0
    3.8296   -6.4004    0.0000 C   0  0  0  0  0  0  0  0  0  0  0  0
    2.4200   -5.8874    0.0000 C   0  0  0  0  0  0  0  0  0  0  0  0
    2.1595   -4.4101    0.0000 C   0  0  0  0  0  0  0  0  0  0  0  0
    3.3086   -3.4460    0.0000 N   0  0  0  0  0  0  0  0  0  0  0  0
    4.7181   -3.9590    0.0000 C   0  0  0  0  0  0  0  0  0  0  0  0
    5.1316   -5.4009    0.0000 N   0  0  0  0  0  0  0  0  0  0  0  0
    6.6307   -5.4532    0.0000 C   0  0  0  0  0  0  0  0  0  0  0  0
    7.5949   -6.6023    0.0000 C   0  0  0  0  0  0  0  0  0  0  0  0
    9.0721   -6.3418    0.0000 C   0  0  0  0  0  0  0  0  0  0  0  0
    9.5851   -4.9323    0.0000 C   0  0  0  0  0  0  0  0  0  0  0  0
    8.6209   -3.7832    0.0000 C   0  0  0  0  0  0  0  0  0  0  0  0
    7.1437   -4.0437    0.0000 C   0  0  0  0  0  0  0  0  0  0  0  0
    5.9617   -3.1202    0.0000 S   0  0  0  0  0  0  0  0  0  0  0  0
    0.7500   -3.8971    0.0000 P   0  0  0  0  0  0  0  0  0  0  0  0
    0.4895   -5.3743    0.0000 O   0  0  0  0  0  0  0  0  0  0  0  0
    1.5000   -2.5981    0.0000 O   0  0  0  0  0  0  0  0  0  0  0  0
    0.7500   -1.2990    0.0000 C   0  0  0  0  0  0  0  0  0  0  0  0
    1.5000   -0.0000    0.0000 C   0  0  0  0  0  0  0  0  0  0  0  0
    0.7500    1.2990    0.0000 C   0  0  0  0  0  0  0  0  0  0  0  0
   -0.7500    1.2990    0.0000 C   0  0  0  0  0  0  0  0  0  0  0  0
   -1.5000   -0.0000    0.0000 C   0  0  0  0  0  0  0  0  0  0  0  0
   -0.7500   -1.2990    0.0000 C   0  0  0  0  0  0  0  0  0  0  0  0
   -1.5000   -2.5981    0.0000 C   0  0  0  0  0  0  0  0  0  0  0  0
   -3.0000   -2.5981    0.0000 C   0  0  0  0  0  0  0  0  0  0  0  0
   -3.7500   -3.8971    0.0000 C   0  0  0  0  0  0  0  0  0  0  0  0
   -3.0000   -5.1962    0.0000 C   0  0  0  0  0  0  0  0  0  0  0  0
   -1.5000   -5.1962    0.0000 C   0  0  0  0  0  0  0  0  0  0  0  0
   -0.7500   -3.8971    0.0000 C   0  0  0  0  0  0  0  0  0  0  0  0
    1.2709   -6.8515    0.0000 C   0  0  0  0  0  0  0  0  0  0  0  0
    1.5314   -8.3287    0.0000 C   0  0  0  0  0  0  0  0  0  0  0  0
    3.0165  -12.4322    0.0000 C   0  0  0  0  0  0  0  0  0  0  0  0
    4.4938  -12.1718    0.0000 C   0  0  0  0  0  0  0  0  0  0  0  0
    5.4579  -13.3208    0.0000 C   0  0  0  0  0  0  0  0  0  0  0  0
    4.9449  -14.7304    0.0000 C   0  0  0  0  0  0  0  0  0  0  0  0
    3.4677  -14.9908    0.0000 C   0  0  0  0  0  0  0  0  0  0  0  0
    2.5035  -13.8418    0.0000 C   0  0  0  0  0  0  0  0  0  0  0  0
   -0.7667  -10.2571    0.0000 C   0  0  0  0  0  0  0  0  0  0  0  0
   -2.1763   -9.7441    0.0000 C   0  0  0  0  0  0  0  0  0  0  0  0
   -5.8839  -11.1594    0.0000 P   0  0  0  0  0  0  0  0  0  0  0  0
   -6.6339   -9.8604    0.0000 O   0  0  0  0  0  0  0  0  0  0  0  0
   -4.7349  -12.1236    0.0000 O   0  0  0  0  0  0  0  0  0  0  0  0
   -4.9953  -13.6008    0.0000 C   0  0  0  0  0  0  0  0  0  0  0  0
   -3.8463  -14.5650    0.0000 C   0  0  0  0  0  0  0  0  0  0  0  0
   -4.1067  -16.0422    0.0000 C   0  0  0  0  0  0  0  0  0  0  0  0
   -5.5163  -16.5552    0.0000 C   0  0  0  0  0  0  0  0  0  0  0  0
   -6.6653  -15.5910    0.0000 C   0  0  0  0  0  0  0  0  0  0  0  0
   -6.4049  -14.1138    0.0000 C   0  0  0  0  0  0  0  0  0  0  0  0
   -7.5539  -13.1497    0.0000 C   0  0  0  0  0  0  0  0  0  0  0  0
   -8.9635  -13.6627    0.0000 C   0  0  0  0  0  0  0  0  0  0  0  0
  -10.1125  -12.6985    0.0000 C   0  0  0  0  0  0  0  0  0  0  0  0
   -9.8521  -11.2213    0.0000 C   0  0  0  0  0  0  0  0  0  0  0  0
   -8.4425  -10.7083    0.0000 C   0  0  0  0  0  0  0  0  0  0  0  0
   -7.2935  -11.6724    0.0000 C   0  0  0  0  0  0  0  0  0  0  0  0
   -6.8183   -6.7631    0.0000 S   0  0  0  0  0  0  0  0  0  0  0  0
   -8.3174   -6.7107    0.0000 C   0  0  0  0  0  0  0  0  0  0  0  0
   -9.2816   -5.5617    0.0000 C   0  0  0  0  0  0  0  0  0  0  0  0
  -12.1741   -2.1145    0.0000 C   0  0  0  0  0  0  0  0  0  0  0  0
  -11.6611   -0.7049    0.0000 C   0  0  0  0  0  0  0  0  0  0  0  0
  -12.6253    0.4441    0.0000 C   0  0  0  0  0  0  0  0  0  0  0  0
  -14.1025    0.1837    0.0000 C   0  0  0  0  0  0  0  0  0  0  0  0
  -14.6155   -1.2259    0.0000 C   0  0  0  0  0  0  0  0  0  0  0  0
  -13.6514   -2.3750    0.0000 C   0  0  0  0  0  0  0  0  0  0  0  0
  1  2  2  0
  2  3  1  0
  3  4  1  0
  4  5  2  0
  5  6  1  0
  6  7  2  0
  7  8  1  0
  8  9  2  0
  9 10  1  0
 10 11  1  0
 11 12  1  0
 12 13  2  0
 13 14  1  0
 14 15  2  0
 15 16  1  0
 16 17  1  0
 17 18  2  0
 17 19  1  0
 19 20  1  0
 20 21  2  0
 21 22  1  0
 22 23  2  0
 23 24  1  0
 24 25  1  0
 25 26  1  0
 26 27  2  0
 27 28  1  0
 28 29  2  0
 29 30  1  0
 30 31  2  0
 31 32  1  0
 32 33  2  0
 33 34  1  0
 24 35  1  0
 35 36  2  0
 35 37  1  0
 37 38  1  0
 38 39  2  0
 39 40  1  0
 40 41  2  0
 41 42  1  0
 42 43  2  0
 43 44  1  0
 44 45  2  0
 45 46  1  0
 46 47  2  0
 47 48  1  0
 48 49  2  0
 23 50  1  0
 50 51  2  0
 17 52  1  0
 52 53  2  0
 53 54  1  0
 54 55  2  0
 55 56  1  0
 56 57  2  0
 15 58  1  0
 58 59  2  0
 11 60  1  0
 60 61  2  0
 60 62  1  0
 62 63  1  0
 63 64  2  0
 64 65  1  0
 65 66  2  0
 66 67  1  0
 67 68  2  0
 68 69  1  0
 69 70  2  0
 70 71  1  0
 71 72  2  0
 72 73  1  0
 73 74  2  0
  9 75  1  0
 75 76  1  0
 76 77  2  0
  2 78  1  0
 78 79  2  0
 79 80  1  0
 80 81  2  0
 81 82  1  0
 82 83  2  0
 77  4  1  0
 83 78  1  0
 76  7  1  0
 59 12  1  0
 74 60  1  0
 51 20  1  0
 57 52  1  0
 68 63  1  0
 74 69  1  0
 34 26  1  0
 49 35  1  0
 33 28  1  0
 43 38  1  0
 49 44  1  0
M  END
>  <Candidate_ID>  (236) 
CAND_R2_236

>  <Candidate_Name>  (236) 
PAD-benzamide-linker

>  <Parent_Seed_ID>  (236) 
TRAIN_055

>  <Parent_Name>  (236) 
PAD

>  <Transformation_Code>  (236) 
benzamide_linker

>  <Design_Family>  (236) 
P-N-S

>  <Preparation_Type>  (236) 
Additive

>  <Synthesis_Level>  (236) 
B

>  <Parent_Tanimoto_r3>  (236) 
0.7758620689655172

>  <Max_Train_Tanimoto_r3>  (236) 
0.7758620689655172

>  <Risk_Flags>  (236) 
none

$$$$
CAND_R2_237 | PAD-phenyl
     RDKit          2D

 80 93  0  0  0  0  0  0  0  0999 V2000
    3.0165  -12.4322    0.0000 O   0  0  0  0  0  0  0  0  0  0  0  0
    2.0524  -11.2832    0.0000 P   0  0  0  0  0  0  0  0  0  0  0  0
    3.2014  -10.3190    0.0000 O   0  0  0  0  0  0  0  0  0  0  0  0
    4.6110  -10.8320    0.0000 C   0  0  0  0  0  0  0  0  0  0  0  0
    5.7600   -9.8678    0.0000 C   0  0  0  0  0  0  0  0  0  0  0  0
    7.1696  -10.3809    0.0000 C   0  0  0  0  0  0  0  0  0  0  0  0
    7.4300  -11.8581    0.0000 C   0  0  0  0  0  0  0  0  0  0  0  0
    8.8396  -12.3711    0.0000 C   0  0  0  0  0  0  0  0  0  0  0  0
    9.9887  -11.4069    0.0000 N   0  0  0  0  0  0  0  0  0  0  0  0
    9.7282   -9.9297    0.0000 C   0  0  0  0  0  0  0  0  0  0  0  0
    8.3800   -9.2722    0.0000 N   0  0  0  0  0  0  0  0  0  0  0  0
    8.5887   -7.7868    0.0000 C   0  0  0  0  0  0  0  0  0  0  0  0
    7.6246   -6.6377    0.0000 C   0  0  0  0  0  0  0  0  0  0  0  0
    8.1376   -5.2282    0.0000 C   0  0  0  0  0  0  0  0  0  0  0  0
    9.6148   -4.9677    0.0000 C   0  0  0  0  0  0  0  0  0  0  0  0
   10.5790   -6.1167    0.0000 C   0  0  0  0  0  0  0  0  0  0  0  0
   10.0660   -7.5263    0.0000 C   0  0  0  0  0  0  0  0  0  0  0  0
   10.7702   -8.8507    0.0000 S   0  0  0  0  0  0  0  0  0  0  0  0
    9.1001  -13.8483    0.0000 P   0  0  0  0  0  0  0  0  0  0  0  0
    7.6001  -13.8483    0.0000 O   0  0  0  0  0  0  0  0  0  0  0  0
   10.5096  -13.3353    0.0000 O   0  0  0  0  0  0  0  0  0  0  0  0
   11.6587  -14.2995    0.0000 C   0  0  0  0  0  0  0  0  0  0  0  0
   13.0682  -13.7864    0.0000 C   0  0  0  0  0  0  0  0  0  0  0  0
   14.2173  -14.7506    0.0000 C   0  0  0  0  0  0  0  0  0  0  0  0
   13.9568  -16.2278    0.0000 C   0  0  0  0  0  0  0  0  0  0  0  0
   12.5473  -16.7409    0.0000 C   0  0  0  0  0  0  0  0  0  0  0  0
   11.3982  -15.7767    0.0000 C   0  0  0  0  0  0  0  0  0  0  0  0
    9.9887  -16.2897    0.0000 C   0  0  0  0  0  0  0  0  0  0  0  0
    9.7282  -17.7669    0.0000 C   0  0  0  0  0  0  0  0  0  0  0  0
    8.3186  -18.2800    0.0000 C   0  0  0  0  0  0  0  0  0  0  0  0
    7.1696  -17.3158    0.0000 C   0  0  0  0  0  0  0  0  0  0  0  0
    7.4300  -15.8386    0.0000 C   0  0  0  0  0  0  0  0  0  0  0  0
    8.8396  -15.3255    0.0000 C   0  0  0  0  0  0  0  0  0  0  0  0
    6.2810  -12.8223    0.0000 C   0  0  0  0  0  0  0  0  0  0  0  0
    4.8714  -12.3092    0.0000 C   0  0  0  0  0  0  0  0  0  0  0  0
    0.9033  -12.2474    0.0000 O   0  0  0  0  0  0  0  0  0  0  0  0
    1.1638  -13.7246    0.0000 C   0  0  0  0  0  0  0  0  0  0  0  0
    2.5733  -14.2376    0.0000 C   0  0  0  0  0  0  0  0  0  0  0  0
    2.8338  -15.7148    0.0000 C   0  0  0  0  0  0  0  0  0  0  0  0
    1.6847  -16.6790    0.0000 C   0  0  0  0  0  0  0  0  0  0  0  0
    1.9452  -18.1562    0.0000 C   0  0  0  0  0  0  0  0  0  0  0  0
    3.3547  -18.6692    0.0000 N   0  0  0  0  0  0  0  0  0  0  0  0
    3.6152  -20.1464    0.0000 C   0  0  0  0  0  0  0  0  0  0  0  0
    4.9634  -20.8040    0.0000 N   0  0  0  0  0  0  0  0  0  0  0  0
    4.7546  -22.2894    0.0000 C   0  0  0  0  0  0  0  0  0  0  0  0
    5.7188  -23.4385    0.0000 C   0  0  0  0  0  0  0  0  0  0  0  0
    5.2058  -24.8480    0.0000 C   0  0  0  0  0  0  0  0  0  0  0  0
    3.7286  -25.1085    0.0000 C   0  0  0  0  0  0  0  0  0  0  0  0
    3.2155  -26.5180    0.0000 C   0  0  0  0  0  0  0  0  0  0  0  0
    4.1797  -27.6671    0.0000 C   0  0  0  0  0  0  0  0  0  0  0  0
    3.6667  -29.0766    0.0000 C   0  0  0  0  0  0  0  0  0  0  0  0
    2.1895  -29.3371    0.0000 C   0  0  0  0  0  0  0  0  0  0  0  0
    1.2253  -28.1880    0.0000 C   0  0  0  0  0  0  0  0  0  0  0  0
    1.7383  -26.7785    0.0000 C   0  0  0  0  0  0  0  0  0  0  0  0
    2.7644  -23.9594    0.0000 C   0  0  0  0  0  0  0  0  0  0  0  0
    3.2774  -22.5499    0.0000 C   0  0  0  0  0  0  0  0  0  0  0  0
    2.5732  -21.2255    0.0000 S   0  0  0  0  0  0  0  0  0  0  0  0
    0.7961  -19.1204    0.0000 P   0  0  0  0  0  0  0  0  0  0  0  0
    1.9452  -20.0846    0.0000 O   0  0  0  0  0  0  0  0  0  0  0  0
    0.0461  -17.8213    0.0000 O   0  0  0  0  0  0  0  0  0  0  0  0
   -1.4539  -17.8213    0.0000 C   0  0  0  0  0  0  0  0  0  0  0  0
   -2.2039  -16.5223    0.0000 C   0  0  0  0  0  0  0  0  0  0  0  0
   -3.7039  -16.5223    0.0000 C   0  0  0  0  0  0  0  0  0  0  0  0
   -4.4539  -17.8213    0.0000 C   0  0  0  0  0  0  0  0  0  0  0  0
   -3.7039  -19.1204    0.0000 C   0  0  0  0  0  0  0  0  0  0  0  0
   -2.2039  -19.1204    0.0000 C   0  0  0  0  0  0  0  0  0  0  0  0
   -1.4539  -20.4194    0.0000 C   0  0  0  0  0  0  0  0  0  0  0  0
   -2.2039  -21.7185    0.0000 C   0  0  0  0  0  0  0  0  0  0  0  0
   -1.4539  -23.0175    0.0000 C   0  0  0  0  0  0  0  0  0  0  0  0
    0.0461  -23.0175    0.0000 C   0  0  0  0  0  0  0  0  0  0  0  0
    0.7961  -21.7185    0.0000 C   0  0  0  0  0  0  0  0  0  0  0  0
    0.0461  -20.4194    0.0000 C   0  0  0  0  0  0  0  0  0  0  0  0
    0.2752  -16.1660    0.0000 C   0  0  0  0  0  0  0  0  0  0  0  0
    0.0147  -14.6887    0.0000 C   0  0  0  0  0  0  0  0  0  0  0  0
    1.0882  -10.1341    0.0000 C   0  0  0  0  0  0  0  0  0  0  0  0
    1.6012   -8.7246    0.0000 C   0  0  0  0  0  0  0  0  0  0  0  0
    0.6370   -7.5755    0.0000 C   0  0  0  0  0  0  0  0  0  0  0  0
   -0.8402   -7.8360    0.0000 C   0  0  0  0  0  0  0  0  0  0  0  0
   -1.3532   -9.2455    0.0000 C   0  0  0  0  0  0  0  0  0  0  0  0
   -0.3890  -10.3946    0.0000 C   0  0  0  0  0  0  0  0  0  0  0  0
  1  2  2  0
  2  3  1  0
  3  4  1  0
  4  5  2  0
  5  6  1  0
  6  7  2  0
  7  8  1  0
  8  9  1  0
  9 10  1  0
 10 11  2  0
 11 12  1  0
 12 13  2  0
 13 14  1  0
 14 15  2  0
 15 16  1  0
 16 17  2  0
 17 18  1  0
  8 19  1  0
 19 20  2  0
 19 21  1  0
 21 22  1  0
 22 23  2  0
 23 24  1  0
 24 25  2  0
 25 26  1  0
 26 27  2  0
 27 28  1  0
 28 29  2  0
 29 30  1  0
 30 31  2  0
 31 32  1  0
 32 33  2  0
  7 34  1  0
 34 35  2  0
  2 36  1  0
 36 37  1  0
 37 38  2  0
 38 39  1  0
 39 40  2  0
 40 41  1  0
 41 42  1  0
 42 43  1  0
 43 44  2  0
 44 45  1  0
 45 46  2  0
 46 47  1  0
 47 48  2  0
 48 49  1  0
 49 50  2  0
 50 51  1  0
 51 52  2  0
 52 53  1  0
 53 54  2  0
 48 55  1  0
 55 56  2  0
 56 57  1  0
 41 58  1  0
 58 59  2  0
 58 60  1  0
 60 61  1  0
 61 62  2  0
 62 63  1  0
 63 64  2  0
 64 65  1  0
 65 66  2  0
 66 67  1  0
 67 68  2  0
 68 69  1  0
 69 70  2  0
 70 71  1  0
 71 72  2  0
 40 73  1  0
 73 74  2  0
  2 75  1  0
 75 76  2  0
 76 77  1  0
 77 78  2  0
 78 79  1  0
 79 80  2  0
 35  4  1  0
 74 37  1  0
 80 75  1  0
 18 10  1  0
 33 19  1  0
 57 43  1  0
 72 58  1  0
 17 12  1  0
 27 22  1  0
 33 28  1  0
 56 45  1  0
 66 61  1  0
 72 67  1  0
 54 49  1  0
M  END
>  <Candidate_ID>  (237) 
CAND_R2_237

>  <Candidate_Name>  (237) 
PAD-phenyl

>  <Parent_Seed_ID>  (237) 
TRAIN_055

>  <Parent_Name>  (237) 
PAD

>  <Transformation_Code>  (237) 
phenyl

>  <Design_Family>  (237) 
P-N-S

>  <Preparation_Type>  (237) 
Additive

>  <Synthesis_Level>  (237) 
B

>  <Parent_Tanimoto_r3>  (237) 
0.8256880733944955

>  <Max_Train_Tanimoto_r3>  (237) 
0.8256880733944955

>  <Risk_Flags>  (237) 
none

$$$$
CAND_R2_238 | PAD-biphenyl
     RDKit          2D

 86100  0  0  0  0  0  0  0  0999 V2000
    1.0882  -10.1341    0.0000 O   0  0  0  0  0  0  0  0  0  0  0  0
    2.0524  -11.2832    0.0000 P   0  0  0  0  0  0  0  0  0  0  0  0
    3.2014  -10.3190    0.0000 O   0  0  0  0  0  0  0  0  0  0  0  0
    2.9410   -8.8418    0.0000 C   0  0  0  0  0  0  0  0  0  0  0  0
    4.0900   -7.8776    0.0000 C   0  0  0  0  0  0  0  0  0  0  0  0
    3.8296   -6.4004    0.0000 C   0  0  0  0  0  0  0  0  0  0  0  0
    2.4200   -5.8874    0.0000 C   0  0  0  0  0  0  0  0  0  0  0  0
    2.1595   -4.4101    0.0000 C   0  0  0  0  0  0  0  0  0  0  0  0
    3.3086   -3.4460    0.0000 N   0  0  0  0  0  0  0  0  0  0  0  0
    4.7181   -3.9590    0.0000 C   0  0  0  0  0  0  0  0  0  0  0  0
    5.1316   -5.4009    0.0000 N   0  0  0  0  0  0  0  0  0  0  0  0
    6.6307   -5.4532    0.0000 C   0  0  0  0  0  0  0  0  0  0  0  0
    7.5949   -6.6023    0.0000 C   0  0  0  0  0  0  0  0  0  0  0  0
    9.0721   -6.3418    0.0000 C   0  0  0  0  0  0  0  0  0  0  0  0
    9.5851   -4.9323    0.0000 C   0  0  0  0  0  0  0  0  0  0  0  0
    8.6209   -3.7832    0.0000 C   0  0  0  0  0  0  0  0  0  0  0  0
    7.1437   -4.0437    0.0000 C   0  0  0  0  0  0  0  0  0  0  0  0
    5.9617   -3.1202    0.0000 S   0  0  0  0  0  0  0  0  0  0  0  0
    0.7500   -3.8971    0.0000 P   0  0  0  0  0  0  0  0  0  0  0  0
    0.4895   -5.3743    0.0000 O   0  0  0  0  0  0  0  0  0  0  0  0
    1.5000   -2.5981    0.0000 O   0  0  0  0  0  0  0  0  0  0  0  0
    0.7500   -1.2990    0.0000 C   0  0  0  0  0  0  0  0  0  0  0  0
    1.5000   -0.0000    0.0000 C   0  0  0  0  0  0  0  0  0  0  0  0
    0.7500    1.2990    0.0000 C   0  0  0  0  0  0  0  0  0  0  0  0
   -0.7500    1.2990    0.0000 C   0  0  0  0  0  0  0  0  0  0  0  0
   -1.5000   -0.0000    0.0000 C   0  0  0  0  0  0  0  0  0  0  0  0
   -0.7500   -1.2990    0.0000 C   0  0  0  0  0  0  0  0  0  0  0  0
   -1.5000   -2.5981    0.0000 C   0  0  0  0  0  0  0  0  0  0  0  0
   -3.0000   -2.5981    0.0000 C   0  0  0  0  0  0  0  0  0  0  0  0
   -3.7500   -3.8971    0.0000 C   0  0  0  0  0  0  0  0  0  0  0  0
   -3.0000   -5.1962    0.0000 C   0  0  0  0  0  0  0  0  0  0  0  0
   -1.5000   -5.1962    0.0000 C   0  0  0  0  0  0  0  0  0  0  0  0
   -0.7500   -3.8971    0.0000 C   0  0  0  0  0  0  0  0  0  0  0  0
    1.2709   -6.8515    0.0000 C   0  0  0  0  0  0  0  0  0  0  0  0
    1.5314   -8.3287    0.0000 C   0  0  0  0  0  0  0  0  0  0  0  0
    0.9033  -12.2474    0.0000 O   0  0  0  0  0  0  0  0  0  0  0  0
   -0.5062  -11.7343    0.0000 C   0  0  0  0  0  0  0  0  0  0  0  0
   -0.7667  -10.2571    0.0000 C   0  0  0  0  0  0  0  0  0  0  0  0
   -2.1763   -9.7441    0.0000 C   0  0  0  0  0  0  0  0  0  0  0  0
   -3.3253  -10.7083    0.0000 C   0  0  0  0  0  0  0  0  0  0  0  0
   -4.7349  -10.1952    0.0000 C   0  0  0  0  0  0  0  0  0  0  0  0
   -4.9953   -8.7180    0.0000 N   0  0  0  0  0  0  0  0  0  0  0  0
   -6.4049   -8.2050    0.0000 C   0  0  0  0  0  0  0  0  0  0  0  0
   -6.8183   -6.7631    0.0000 N   0  0  0  0  0  0  0  0  0  0  0  0
   -8.3174   -6.7107    0.0000 C   0  0  0  0  0  0  0  0  0  0  0  0
   -9.2816   -5.5617    0.0000 C   0  0  0  0  0  0  0  0  0  0  0  0
  -10.7588   -5.8222    0.0000 C   0  0  0  0  0  0  0  0  0  0  0  0
  -11.2718   -7.2317    0.0000 C   0  0  0  0  0  0  0  0  0  0  0  0
  -12.7490   -7.4922    0.0000 C   0  0  0  0  0  0  0  0  0  0  0  0
  -13.7132   -6.3431    0.0000 C   0  0  0  0  0  0  0  0  0  0  0  0
  -15.1904   -6.6036    0.0000 C   0  0  0  0  0  0  0  0  0  0  0  0
  -15.7035   -8.0131    0.0000 C   0  0  0  0  0  0  0  0  0  0  0  0
  -17.1807   -8.2736    0.0000 C   0  0  0  0  0  0  0  0  0  0  0  0
  -18.1449   -7.1245    0.0000 C   0  0  0  0  0  0  0  0  0  0  0  0
  -19.6221   -7.3850    0.0000 C   0  0  0  0  0  0  0  0  0  0  0  0
  -20.1351   -8.7945    0.0000 C   0  0  0  0  0  0  0  0  0  0  0  0
  -19.1709   -9.9436    0.0000 C   0  0  0  0  0  0  0  0  0  0  0  0
  -17.6937   -9.6831    0.0000 C   0  0  0  0  0  0  0  0  0  0  0  0
  -14.7393   -9.1622    0.0000 C   0  0  0  0  0  0  0  0  0  0  0  0
  -13.2621   -8.9017    0.0000 C   0  0  0  0  0  0  0  0  0  0  0  0
  -10.3077   -8.3808    0.0000 C   0  0  0  0  0  0  0  0  0  0  0  0
   -8.8304   -8.1203    0.0000 C   0  0  0  0  0  0  0  0  0  0  0  0
   -7.6484   -9.0438    0.0000 S   0  0  0  0  0  0  0  0  0  0  0  0
   -5.8839  -11.1594    0.0000 P   0  0  0  0  0  0  0  0  0  0  0  0
   -6.6339   -9.8604    0.0000 O   0  0  0  0  0  0  0  0  0  0  0  0
   -4.7349  -12.1236    0.0000 O   0  0  0  0  0  0  0  0  0  0  0  0
   -4.9953  -13.6008    0.0000 C   0  0  0  0  0  0  0  0  0  0  0  0
   -3.8463  -14.5650    0.0000 C   0  0  0  0  0  0  0  0  0  0  0  0
   -4.1067  -16.0422    0.0000 C   0  0  0  0  0  0  0  0  0  0  0  0
   -5.5163  -16.5552    0.0000 C   0  0  0  0  0  0  0  0  0  0  0  0
   -6.6653  -15.5910    0.0000 C   0  0  0  0  0  0  0  0  0  0  0  0
   -6.4049  -14.1138    0.0000 C   0  0  0  0  0  0  0  0  0  0  0  0
   -7.5539  -13.1497    0.0000 C   0  0  0  0  0  0  0  0  0  0  0  0
   -8.9635  -13.6627    0.0000 C   0  0  0  0  0  0  0  0  0  0  0  0
  -10.1125  -12.6985    0.0000 C   0  0  0  0  0  0  0  0  0  0  0  0
   -9.8521  -11.2213    0.0000 C   0  0  0  0  0  0  0  0  0  0  0  0
   -8.4425  -10.7083    0.0000 C   0  0  0  0  0  0  0  0  0  0  0  0
   -7.2935  -11.6724    0.0000 C   0  0  0  0  0  0  0  0  0  0  0  0
   -3.0648  -12.1855    0.0000 C   0  0  0  0  0  0  0  0  0  0  0  0
   -1.6553  -12.6985    0.0000 C   0  0  0  0  0  0  0  0  0  0  0  0
    3.0165  -12.4322    0.0000 C   0  0  0  0  0  0  0  0  0  0  0  0
    4.4938  -12.1718    0.0000 C   0  0  0  0  0  0  0  0  0  0  0  0
    5.4579  -13.3208    0.0000 C   0  0  0  0  0  0  0  0  0  0  0  0
    4.9449  -14.7304    0.0000 C   0  0  0  0  0  0  0  0  0  0  0  0
    3.4677  -14.9908    0.0000 C   0  0  0  0  0  0  0  0  0  0  0  0
    2.5035  -13.8418    0.0000 C   0  0  0  0  0  0  0  0  0  0  0  0
  1  2  2  0
  2  3  1  0
  3  4  1  0
  4  5  2  0
  5  6  1  0
  6  7  2  0
  7  8  1  0
  8  9  1  0
  9 10  1  0
 10 11  2  0
 11 12  1  0
 12 13  2  0
 13 14  1  0
 14 15  2  0
 15 16  1  0
 16 17  2  0
 17 18  1  0
  8 19  1  0
 19 20  2  0
 19 21  1  0
 21 22  1  0
 22 23  2  0
 23 24  1  0
 24 25  2  0
 25 26  1  0
 26 27  2  0
 27 28  1  0
 28 29  2  0
 29 30  1  0
 30 31  2  0
 31 32  1  0
 32 33  2  0
  7 34  1  0
 34 35  2  0
  2 36  1  0
 36 37  1  0
 37 38  2  0
 38 39  1  0
 39 40  2  0
 40 41  1  0
 41 42  1  0
 42 43  1  0
 43 44  2  0
 44 45  1  0
 45 46  2  0
 46 47  1  0
 47 48  2  0
 48 49  1  0
 49 50  2  0
 50 51  1  0
 51 52  2  0
 52 53  1  0
 53 54  2  0
 54 55  1  0
 55 56  2  0
 56 57  1  0
 57 58  2  0
 52 59  1  0
 59 60  2  0
 48 61  1  0
 61 62  2  0
 62 63  1  0
 41 64  1  0
 64 65  2  0
 64 66  1  0
 66 67  1  0
 67 68  2  0
 68 69  1  0
 69 70  2  0
 70 71  1  0
 71 72  2  0
 72 73  1  0
 73 74  2  0
 74 75  1  0
 75 76  2  0
 76 77  1  0
 77 78  2  0
 40 79  1  0
 79 80  2  0
  2 81  1  0
 81 82  2  0
 82 83  1  0
 83 84  2  0
 84 85  1  0
 85 86  2  0
 35  4  1  0
 80 37  1  0
 86 81  1  0
 18 10  1  0
 33 19  1  0
 63 43  1  0
 78 64  1  0
 17 12  1  0
 27 22  1  0
 33 28  1  0
 62 45  1  0
 72 67  1  0
 78 73  1  0
 60 49  1  0
 58 53  1  0
M  END
>  <Candidate_ID>  (238) 
CAND_R2_238

>  <Candidate_Name>  (238) 
PAD-biphenyl

>  <Parent_Seed_ID>  (238) 
TRAIN_055

>  <Parent_Name>  (238) 
PAD

>  <Transformation_Code>  (238) 
biphenyl

>  <Design_Family>  (238) 
P-N-S

>  <Preparation_Type>  (238) 
Additive

>  <Synthesis_Level>  (238) 
B

>  <Parent_Tanimoto_r3>  (238) 
0.8035714285714286

>  <Max_Train_Tanimoto_r3>  (238) 
0.8035714285714286

>  <Risk_Flags>  (238) 
high molecular weight

$$$$
CAND_R2_239 | PAD-NH-methyl
     RDKit          2D

 75 87  0  0  0  0  0  0  0  0999 V2000
   -7.2935  -10.6464    0.0000 C   0  0  0  0  0  0  0  0  0  0  0  0
   -5.8839  -11.1594    0.0000 N   0  0  0  0  0  0  0  0  0  0  0  0
   -5.6235  -12.6366    0.0000 C   0  0  0  0  0  0  0  0  0  0  0  0
   -4.2753  -13.2942    0.0000 N   0  0  0  0  0  0  0  0  0  0  0  0
   -4.4840  -14.7796    0.0000 C   0  0  0  0  0  0  0  0  0  0  0  0
   -3.5198  -15.9287    0.0000 C   0  0  0  0  0  0  0  0  0  0  0  0
   -4.0329  -17.3382    0.0000 C   0  0  0  0  0  0  0  0  0  0  0  0
   -5.5101  -17.5987    0.0000 C   0  0  0  0  0  0  0  0  0  0  0  0
   -6.4743  -16.4496    0.0000 C   0  0  0  0  0  0  0  0  0  0  0  0
   -5.9612  -15.0401    0.0000 C   0  0  0  0  0  0  0  0  0  0  0  0
   -6.6654  -13.7156    0.0000 S   0  0  0  0  0  0  0  0  0  0  0  0
   -4.7349  -10.1952    0.0000 C   0  0  0  0  0  0  0  0  0  0  0  0
   -3.3253  -10.7083    0.0000 C   0  0  0  0  0  0  0  0  0  0  0  0
   -2.1763   -9.7441    0.0000 C   0  0  0  0  0  0  0  0  0  0  0  0
   -0.7667  -10.2571    0.0000 C   0  0  0  0  0  0  0  0  0  0  0  0
   -0.5062  -11.7343    0.0000 C   0  0  0  0  0  0  0  0  0  0  0  0
    0.9033  -12.2474    0.0000 O   0  0  0  0  0  0  0  0  0  0  0  0
    2.0524  -11.2832    0.0000 P   0  0  0  0  0  0  0  0  0  0  0  0
    3.0165  -12.4322    0.0000 O   0  0  0  0  0  0  0  0  0  0  0  0
    3.2014  -10.3190    0.0000 O   0  0  0  0  0  0  0  0  0  0  0  0
    4.6110  -10.8320    0.0000 C   0  0  0  0  0  0  0  0  0  0  0  0
    5.7600   -9.8678    0.0000 C   0  0  0  0  0  0  0  0  0  0  0  0
    7.1696  -10.3809    0.0000 C   0  0  0  0  0  0  0  0  0  0  0  0
    7.4300  -11.8581    0.0000 C   0  0  0  0  0  0  0  0  0  0  0  0
    8.8396  -12.3711    0.0000 C   0  0  0  0  0  0  0  0  0  0  0  0
    9.9887  -11.4069    0.0000 N   0  0  0  0  0  0  0  0  0  0  0  0
    9.7282   -9.9297    0.0000 C   0  0  0  0  0  0  0  0  0  0  0  0
    8.3800   -9.2722    0.0000 N   0  0  0  0  0  0  0  0  0  0  0  0
    8.5887   -7.7868    0.0000 C   0  0  0  0  0  0  0  0  0  0  0  0
    7.6246   -6.6377    0.0000 C   0  0  0  0  0  0  0  0  0  0  0  0
    8.1376   -5.2282    0.0000 C   0  0  0  0  0  0  0  0  0  0  0  0
    9.6148   -4.9677    0.0000 C   0  0  0  0  0  0  0  0  0  0  0  0
   10.5790   -6.1167    0.0000 C   0  0  0  0  0  0  0  0  0  0  0  0
   10.0660   -7.5263    0.0000 C   0  0  0  0  0  0  0  0  0  0  0  0
   10.7702   -8.8507    0.0000 S   0  0  0  0  0  0  0  0  0  0  0  0
    9.1001  -13.8483    0.0000 P   0  0  0  0  0  0  0  0  0  0  0  0
    7.6001  -13.8483    0.0000 O   0  0  0  0  0  0  0  0  0  0  0  0
   10.5096  -13.3353    0.0000 O   0  0  0  0  0  0  0  0  0  0  0  0
   11.6587  -14.2995    0.0000 C   0  0  0  0  0  0  0  0  0  0  0  0
   13.0682  -13.7864    0.0000 C   0  0  0  0  0  0  0  0  0  0  0  0
   14.2173  -14.7506    0.0000 C   0  0  0  0  0  0  0  0  0  0  0  0
   13.9568  -16.2278    0.0000 C   0  0  0  0  0  0  0  0  0  0  0  0
   12.5473  -16.7409    0.0000 C   0  0  0  0  0  0  0  0  0  0  0  0
   11.3982  -15.7767    0.0000 C   0  0  0  0  0  0  0  0  0  0  0  0
    9.9887  -16.2897    0.0000 C   0  0  0  0  0  0  0  0  0  0  0  0
    9.7282  -17.7669    0.0000 C   0  0  0  0  0  0  0  0  0  0  0  0
    8.3186  -18.2800    0.0000 C   0  0  0  0  0  0  0  0  0  0  0  0
    7.1696  -17.3158    0.0000 C   0  0  0  0  0  0  0  0  0  0  0  0
    7.4300  -15.8386    0.0000 C   0  0  0  0  0  0  0  0  0  0  0  0
    8.8396  -15.3255    0.0000 C   0  0  0  0  0  0  0  0  0  0  0  0
    6.2810  -12.8223    0.0000 C   0  0  0  0  0  0  0  0  0  0  0  0
    4.8714  -12.3092    0.0000 C   0  0  0  0  0  0  0  0  0  0  0  0
    1.0882  -10.1341    0.0000 C   0  0  0  0  0  0  0  0  0  0  0  0
    1.6012   -8.7246    0.0000 C   0  0  0  0  0  0  0  0  0  0  0  0
    0.6370   -7.5755    0.0000 C   0  0  0  0  0  0  0  0  0  0  0  0
   -0.8402   -7.8360    0.0000 C   0  0  0  0  0  0  0  0  0  0  0  0
   -1.3532   -9.2455    0.0000 C   0  0  0  0  0  0  0  0  0  0  0  0
   -0.3890  -10.3946    0.0000 C   0  0  0  0  0  0  0  0  0  0  0  0
   -1.6553  -12.6985    0.0000 C   0  0  0  0  0  0  0  0  0  0  0  0
   -3.0648  -12.1855    0.0000 C   0  0  0  0  0  0  0  0  0  0  0  0
   -4.9953   -8.7180    0.0000 P   0  0  0  0  0  0  0  0  0  0  0  0
   -3.4953   -8.7180    0.0000 O   0  0  0  0  0  0  0  0  0  0  0  0
   -6.4049   -9.2311    0.0000 O   0  0  0  0  0  0  0  0  0  0  0  0
   -7.5539   -8.2669    0.0000 C   0  0  0  0  0  0  0  0  0  0  0  0
   -8.9635   -8.7799    0.0000 C   0  0  0  0  0  0  0  0  0  0  0  0
  -10.1125   -7.8157    0.0000 C   0  0  0  0  0  0  0  0  0  0  0  0
   -9.8521   -6.3385    0.0000 C   0  0  0  0  0  0  0  0  0  0  0  0
   -8.4425   -5.8255    0.0000 C   0  0  0  0  0  0  0  0  0  0  0  0
   -7.2935   -6.7897    0.0000 C   0  0  0  0  0  0  0  0  0  0  0  0
   -5.8839   -6.2766    0.0000 C   0  0  0  0  0  0  0  0  0  0  0  0
   -5.6235   -4.7994    0.0000 C   0  0  0  0  0  0  0  0  0  0  0  0
   -4.2139   -4.2864    0.0000 C   0  0  0  0  0  0  0  0  0  0  0  0
   -3.0648   -5.2506    0.0000 C   0  0  0  0  0  0  0  0  0  0  0  0
   -3.3253   -6.7278    0.0000 C   0  0  0  0  0  0  0  0  0  0  0  0
   -4.7349   -7.2408    0.0000 C   0  0  0  0  0  0  0  0  0  0  0  0
  1  2  1  0
  2  3  1  0
  3  4  2  0
  4  5  1  0
  5  6  2  0
  6  7  1  0
  7  8  2  0
  8  9  1  0
  9 10  2  0
 10 11  1  0
  2 12  1  0
 12 13  1  0
 13 14  2  0
 14 15  1  0
 15 16  2  0
 16 17  1  0
 17 18  1  0
 18 19  2  0
 18 20  1  0
 20 21  1  0
 21 22  2  0
 22 23  1  0
 23 24  2  0
 24 25  1  0
 25 26  1  0
 26 27  1  0
 27 28  2  0
 28 29  1  0
 29 30  2  0
 30 31  1  0
 31 32  2  0
 32 33  1  0
 33 34  2  0
 34 35  1  0
 25 36  1  0
 36 37  2  0
 36 38  1  0
 38 39  1  0
 39 40  2  0
 40 41  1  0
 41 42  2  0
 42 43  1  0
 43 44  2  0
 44 45  1  0
 45 46  2  0
 46 47  1  0
 47 48  2  0
 48 49  1  0
 49 50  2  0
 24 51  1  0
 51 52  2  0
 18 53  1  0
 53 54  2  0
 54 55  1  0
 55 56  2  0
 56 57  1  0
 57 58  2  0
 16 59  1  0
 59 60  2  0
 12 61  1  0
 61 62  2  0
 61 63  1  0
 63 64  1  0
 64 65  2  0
 65 66  1  0
 66 67  2  0
 67 68  1  0
 68 69  2  0
 69 70  1  0
 70 71  2  0
 71 72  1  0
 72 73  2  0
 73 74  1  0
 74 75  2  0
 11  3  1  0
 60 13  1  0
 75 61  1  0
 10  5  1  0
 52 21  1  0
 58 53  1  0
 69 64  1  0
 75 70  1  0
 35 27  1  0
 50 36  1  0
 34 29  1  0
 44 39  1  0
 50 45  1  0
M  END
>  <Candidate_ID>  (239) 
CAND_R2_239

>  <Candidate_Name>  (239) 
PAD-NH-methyl

>  <Parent_Seed_ID>  (239) 
TRAIN_055

>  <Parent_Name>  (239) 
PAD

>  <Transformation_Code>  (239) 
NH_methyl

>  <Design_Family>  (239) 
P-N-S

>  <Preparation_Type>  (239) 
Additive

>  <Synthesis_Level>  (239) 
B

>  <Parent_Tanimoto_r3>  (239) 
0.7964601769911505

>  <Max_Train_Tanimoto_r3>  (239) 
0.7964601769911505

>  <Risk_Flags>  (239) 
none

$$$$
CAND_R2_240 | PAD-NH-methyl-all
     RDKit          2D

 76 88  0  0  0  0  0  0  0  0999 V2000
   -7.2935  -10.6464    0.0000 C   0  0  0  0  0  0  0  0  0  0  0  0
   -5.8839  -11.1594    0.0000 N   0  0  0  0  0  0  0  0  0  0  0  0
   -5.6235  -12.6366    0.0000 C   0  0  0  0  0  0  0  0  0  0  0  0
   -6.6654  -13.7156    0.0000 N   0  0  0  0  0  0  0  0  0  0  0  0
   -5.9612  -15.0401    0.0000 C   0  0  0  0  0  0  0  0  0  0  0  0
   -6.4743  -16.4496    0.0000 C   0  0  0  0  0  0  0  0  0  0  0  0
   -5.5101  -17.5987    0.0000 C   0  0  0  0  0  0  0  0  0  0  0  0
   -4.0329  -17.3382    0.0000 C   0  0  0  0  0  0  0  0  0  0  0  0
   -3.5198  -15.9287    0.0000 C   0  0  0  0  0  0  0  0  0  0  0  0
   -4.4840  -14.7796    0.0000 C   0  0  0  0  0  0  0  0  0  0  0  0
   -4.2753  -13.2942    0.0000 S   0  0  0  0  0  0  0  0  0  0  0  0
   -4.7349  -10.1952    0.0000 C   0  0  0  0  0  0  0  0  0  0  0  0
   -3.3253  -10.7083    0.0000 C   0  0  0  0  0  0  0  0  0  0  0  0
   -3.0648  -12.1855    0.0000 C   0  0  0  0  0  0  0  0  0  0  0  0
   -1.6553  -12.6985    0.0000 C   0  0  0  0  0  0  0  0  0  0  0  0
   -0.5062  -11.7343    0.0000 C   0  0  0  0  0  0  0  0  0  0  0  0
    0.9033  -12.2474    0.0000 O   0  0  0  0  0  0  0  0  0  0  0  0
    2.0524  -11.2832    0.0000 P   0  0  0  0  0  0  0  0  0  0  0  0
    1.0882  -10.1341    0.0000 O   0  0  0  0  0  0  0  0  0  0  0  0
    3.2014  -10.3190    0.0000 O   0  0  0  0  0  0  0  0  0  0  0  0
    2.9410   -8.8418    0.0000 C   0  0  0  0  0  0  0  0  0  0  0  0
    4.0900   -7.8776    0.0000 C   0  0  0  0  0  0  0  0  0  0  0  0
    3.8296   -6.4004    0.0000 C   0  0  0  0  0  0  0  0  0  0  0  0
    2.4200   -5.8874    0.0000 C   0  0  0  0  0  0  0  0  0  0  0  0
    2.1595   -4.4101    0.0000 C   0  0  0  0  0  0  0  0  0  0  0  0
    0.7500   -3.8971    0.0000 N   0  0  0  0  0  0  0  0  0  0  0  0
   -0.3991   -4.8613    0.0000 C   0  0  0  0  0  0  0  0  0  0  0  0
    0.4895   -2.4199    0.0000 C   0  0  0  0  0  0  0  0  0  0  0  0
   -0.8587   -1.7623    0.0000 N   0  0  0  0  0  0  0  0  0  0  0  0
   -0.6499   -0.2769    0.0000 C   0  0  0  0  0  0  0  0  0  0  0  0
   -1.6141    0.8721    0.0000 C   0  0  0  0  0  0  0  0  0  0  0  0
   -1.1011    2.2817    0.0000 C   0  0  0  0  0  0  0  0  0  0  0  0
    0.3762    2.5421    0.0000 C   0  0  0  0  0  0  0  0  0  0  0  0
    1.3403    1.3931    0.0000 C   0  0  0  0  0  0  0  0  0  0  0  0
    0.8273   -0.0165    0.0000 C   0  0  0  0  0  0  0  0  0  0  0  0
    1.5315   -1.3409    0.0000 S   0  0  0  0  0  0  0  0  0  0  0  0
    3.3086   -3.4460    0.0000 P   0  0  0  0  0  0  0  0  0  0  0  0
    2.1595   -2.4818    0.0000 O   0  0  0  0  0  0  0  0  0  0  0  0
    4.0586   -4.7450    0.0000 O   0  0  0  0  0  0  0  0  0  0  0  0
    5.5586   -4.7450    0.0000 C   0  0  0  0  0  0  0  0  0  0  0  0
    6.3086   -6.0440    0.0000 C   0  0  0  0  0  0  0  0  0  0  0  0
    7.8086   -6.0440    0.0000 C   0  0  0  0  0  0  0  0  0  0  0  0
    8.5586   -4.7450    0.0000 C   0  0  0  0  0  0  0  0  0  0  0  0
    7.8086   -3.4460    0.0000 C   0  0  0  0  0  0  0  0  0  0  0  0
    6.3086   -3.4460    0.0000 C   0  0  0  0  0  0  0  0  0  0  0  0
    5.5586   -2.1469    0.0000 C   0  0  0  0  0  0  0  0  0  0  0  0
    6.3086   -0.8479    0.0000 C   0  0  0  0  0  0  0  0  0  0  0  0
    5.5586    0.4512    0.0000 C   0  0  0  0  0  0  0  0  0  0  0  0
    4.0586    0.4512    0.0000 C   0  0  0  0  0  0  0  0  0  0  0  0
    3.3086   -0.8479    0.0000 C   0  0  0  0  0  0  0  0  0  0  0  0
    4.0586   -2.1469    0.0000 C   0  0  0  0  0  0  0  0  0  0  0  0
    1.2709   -6.8515    0.0000 C   0  0  0  0  0  0  0  0  0  0  0  0
    1.5314   -8.3287    0.0000 C   0  0  0  0  0  0  0  0  0  0  0  0
    3.0165  -12.4322    0.0000 C   0  0  0  0  0  0  0  0  0  0  0  0
    2.5035  -13.8418    0.0000 C   0  0  0  0  0  0  0  0  0  0  0  0
    3.4677  -14.9908    0.0000 C   0  0  0  0  0  0  0  0  0  0  0  0
    4.9449  -14.7304    0.0000 C   0  0  0  0  0  0  0  0  0  0  0  0
    5.4579  -13.3208    0.0000 C   0  0  0  0  0  0  0  0  0  0  0  0
    4.4938  -12.1718    0.0000 C   0  0  0  0  0  0  0  0  0  0  0  0
   -0.7667  -10.2571    0.0000 C   0  0  0  0  0  0  0  0  0  0  0  0
   -2.1763   -9.7441    0.0000 C   0  0  0  0  0  0  0  0  0  0  0  0
   -4.9953   -8.7180    0.0000 P   0  0  0  0  0  0  0  0  0  0  0  0
   -3.4953   -8.7180    0.0000 O   0  0  0  0  0  0  0  0  0  0  0  0
   -6.4049   -9.2311    0.0000 O   0  0  0  0  0  0  0  0  0  0  0  0
   -7.5539   -8.2669    0.0000 C   0  0  0  0  0  0  0  0  0  0  0  0
   -8.9635   -8.7799    0.0000 C   0  0  0  0  0  0  0  0  0  0  0  0
  -10.1125   -7.8157    0.0000 C   0  0  0  0  0  0  0  0  0  0  0  0
   -9.8521   -6.3385    0.0000 C   0  0  0  0  0  0  0  0  0  0  0  0
   -8.4425   -5.8255    0.0000 C   0  0  0  0  0  0  0  0  0  0  0  0
   -7.2935   -6.7897    0.0000 C   0  0  0  0  0  0  0  0  0  0  0  0
   -5.8839   -6.2766    0.0000 C   0  0  0  0  0  0  0  0  0  0  0  0
   -5.6235   -4.7994    0.0000 C   0  0  0  0  0  0  0  0  0  0  0  0
   -4.2139   -4.2864    0.0000 C   0  0  0  0  0  0  0  0  0  0  0  0
   -3.0648   -5.2506    0.0000 C   0  0  0  0  0  0  0  0  0  0  0  0
   -3.3253   -6.7278    0.0000 C   0  0  0  0  0  0  0  0  0  0  0  0
   -4.7349   -7.2408    0.0000 C   0  0  0  0  0  0  0  0  0  0  0  0
  1  2  1  0
  2  3  1  0
  3  4  2  0
  4  5  1  0
  5  6  2  0
  6  7  1  0
  7  8  2  0
  8  9  1  0
  9 10  2  0
 10 11  1  0
  2 12  1  0
 12 13  1  0
 13 14  2  0
 14 15  1  0
 15 16  2  0
 16 17  1  0
 17 18  1  0
 18 19  2  0
 18 20  1  0
 20 21  1  0
 21 22  2  0
 22 23  1  0
 23 24  2  0
 24 25  1  0
 25 26  1  0
 26 27  1  0
 26 28  1  0
 28 29  2  0
 29 30  1  0
 30 31  2  0
 31 32  1  0
 32 33  2  0
 33 34  1  0
 34 35  2  0
 35 36  1  0
 25 37  1  0
 37 38  2  0
 37 39  1  0
 39 40  1  0
 40 41  2  0
 41 42  1  0
 42 43  2  0
 43 44  1  0
 44 45  2  0
 45 46  1  0
 46 47  2  0
 47 48  1  0
 48 49  2  0
 49 50  1  0
 50 51  2  0
 24 52  1  0
 52 53  2  0
 18 54  1  0
 54 55  2  0
 55 56  1  0
 56 57  2  0
 57 58  1  0
 58 59  2  0
 16 60  1  0
 60 61  2  0
 12 62  1  0
 62 63  2  0
 62 64  1  0
 64 65  1  0
 65 66  2  0
 66 67  1  0
 67 68  2  0
 68 69  1  0
 69 70  2  0
 70 71  1  0
 71 72  2  0
 72 73  1  0
 73 74  2  0
 74 75  1  0
 75 76  2  0
 11  3  1  0
 61 13  1  0
 76 62  1  0
 10  5  1  0
 53 21  1  0
 59 54  1  0
 70 65  1  0
 76 71  1  0
 36 28  1  0
 51 37  1  0
 35 30  1  0
 45 40  1  0
 51 46  1  0
M  END
>  <Candidate_ID>  (240) 
CAND_R2_240

>  <Candidate_Name>  (240) 
PAD-NH-methyl-all

>  <Parent_Seed_ID>  (240) 
TRAIN_055

>  <Parent_Name>  (240) 
PAD

>  <Transformation_Code>  (240) 
NH_methyl_all

>  <Design_Family>  (240) 
P-N-S

>  <Preparation_Type>  (240) 
Additive

>  <Synthesis_Level>  (240) 
B

>  <Parent_Tanimoto_r3>  (240) 
0.6283185840707964

>  <Max_Train_Tanimoto_r3>  (240) 
0.6283185840707964

>  <Risk_Flags>  (240) 
large structural change from parent; candidate may be outside strict in-domain threshold

$$$$
CAND_R2_241 | PAD-NH-hydroxyethyl
     RDKit          2D

 77 89  0  0  0  0  0  0  0  0999 V2000
    3.0165  -12.4322    0.0000 O   0  0  0  0  0  0  0  0  0  0  0  0
    2.0524  -11.2832    0.0000 P   0  0  0  0  0  0  0  0  0  0  0  0
    3.2014  -10.3190    0.0000 O   0  0  0  0  0  0  0  0  0  0  0  0
    4.6110  -10.8320    0.0000 C   0  0  0  0  0  0  0  0  0  0  0  0
    5.7600   -9.8678    0.0000 C   0  0  0  0  0  0  0  0  0  0  0  0
    7.1696  -10.3809    0.0000 C   0  0  0  0  0  0  0  0  0  0  0  0
    7.4300  -11.8581    0.0000 C   0  0  0  0  0  0  0  0  0  0  0  0
    8.8396  -12.3711    0.0000 C   0  0  0  0  0  0  0  0  0  0  0  0
    9.9887  -11.4069    0.0000 N   0  0  0  0  0  0  0  0  0  0  0  0
    9.7282   -9.9297    0.0000 C   0  0  0  0  0  0  0  0  0  0  0  0
    8.3800   -9.2722    0.0000 N   0  0  0  0  0  0  0  0  0  0  0  0
    8.5887   -7.7868    0.0000 C   0  0  0  0  0  0  0  0  0  0  0  0
    7.6246   -6.6377    0.0000 C   0  0  0  0  0  0  0  0  0  0  0  0
    8.1376   -5.2282    0.0000 C   0  0  0  0  0  0  0  0  0  0  0  0
    9.6148   -4.9677    0.0000 C   0  0  0  0  0  0  0  0  0  0  0  0
   10.5790   -6.1167    0.0000 C   0  0  0  0  0  0  0  0  0  0  0  0
   10.0660   -7.5263    0.0000 C   0  0  0  0  0  0  0  0  0  0  0  0
   10.7702   -8.8507    0.0000 S   0  0  0  0  0  0  0  0  0  0  0  0
    9.1001  -13.8483    0.0000 P   0  0  0  0  0  0  0  0  0  0  0  0
    7.6001  -13.8483    0.0000 O   0  0  0  0  0  0  0  0  0  0  0  0
   10.5096  -13.3353    0.0000 O   0  0  0  0  0  0  0  0  0  0  0  0
   11.6587  -14.2995    0.0000 C   0  0  0  0  0  0  0  0  0  0  0  0
   13.0682  -13.7864    0.0000 C   0  0  0  0  0  0  0  0  0  0  0  0
   14.2173  -14.7506    0.0000 C   0  0  0  0  0  0  0  0  0  0  0  0
   13.9568  -16.2278    0.0000 C   0  0  0  0  0  0  0  0  0  0  0  0
   12.5473  -16.7409    0.0000 C   0  0  0  0  0  0  0  0  0  0  0  0
   11.3982  -15.7767    0.0000 C   0  0  0  0  0  0  0  0  0  0  0  0
    9.9887  -16.2897    0.0000 C   0  0  0  0  0  0  0  0  0  0  0  0
    9.7282  -17.7669    0.0000 C   0  0  0  0  0  0  0  0  0  0  0  0
    8.3186  -18.2800    0.0000 C   0  0  0  0  0  0  0  0  0  0  0  0
    7.1696  -17.3158    0.0000 C   0  0  0  0  0  0  0  0  0  0  0  0
    7.4300  -15.8386    0.0000 C   0  0  0  0  0  0  0  0  0  0  0  0
    8.8396  -15.3255    0.0000 C   0  0  0  0  0  0  0  0  0  0  0  0
    6.2810  -12.8223    0.0000 C   0  0  0  0  0  0  0  0  0  0  0  0
    4.8714  -12.3092    0.0000 C   0  0  0  0  0  0  0  0  0  0  0  0
    0.9033  -12.2474    0.0000 O   0  0  0  0  0  0  0  0  0  0  0  0
    1.1638  -13.7246    0.0000 C   0  0  0  0  0  0  0  0  0  0  0  0
    2.5733  -14.2376    0.0000 C   0  0  0  0  0  0  0  0  0  0  0  0
    2.8338  -15.7148    0.0000 C   0  0  0  0  0  0  0  0  0  0  0  0
    1.6847  -16.6790    0.0000 C   0  0  0  0  0  0  0  0  0  0  0  0
    1.9452  -18.1562    0.0000 C   0  0  0  0  0  0  0  0  0  0  0  0
    3.3547  -18.6692    0.0000 N   0  0  0  0  0  0  0  0  0  0  0  0
    4.5038  -17.7050    0.0000 C   0  0  0  0  0  0  0  0  0  0  0  0
    5.9133  -18.2181    0.0000 C   0  0  0  0  0  0  0  0  0  0  0  0
    6.1738  -19.6953    0.0000 O   0  0  0  0  0  0  0  0  0  0  0  0
    3.6152  -20.1464    0.0000 C   0  0  0  0  0  0  0  0  0  0  0  0
    4.9634  -20.8040    0.0000 N   0  0  0  0  0  0  0  0  0  0  0  0
    4.7546  -22.2894    0.0000 C   0  0  0  0  0  0  0  0  0  0  0  0
    5.7188  -23.4385    0.0000 C   0  0  0  0  0  0  0  0  0  0  0  0
    5.2058  -24.8480    0.0000 C   0  0  0  0  0  0  0  0  0  0  0  0
    3.7286  -25.1085    0.0000 C   0  0  0  0  0  0  0  0  0  0  0  0
    2.7644  -23.9594    0.0000 C   0  0  0  0  0  0  0  0  0  0  0  0
    3.2774  -22.5499    0.0000 C   0  0  0  0  0  0  0  0  0  0  0  0
    2.5732  -21.2255    0.0000 S   0  0  0  0  0  0  0  0  0  0  0  0
    0.7961  -19.1204    0.0000 P   0  0  0  0  0  0  0  0  0  0  0  0
    1.9452  -20.0846    0.0000 O   0  0  0  0  0  0  0  0  0  0  0  0
    0.0461  -17.8213    0.0000 O   0  0  0  0  0  0  0  0  0  0  0  0
   -1.4539  -17.8213    0.0000 C   0  0  0  0  0  0  0  0  0  0  0  0
   -2.2039  -16.5223    0.0000 C   0  0  0  0  0  0  0  0  0  0  0  0
   -3.7039  -16.5223    0.0000 C   0  0  0  0  0  0  0  0  0  0  0  0
   -4.4539  -17.8213    0.0000 C   0  0  0  0  0  0  0  0  0  0  0  0
   -3.7039  -19.1204    0.0000 C   0  0  0  0  0  0  0  0  0  0  0  0
   -2.2039  -19.1204    0.0000 C   0  0  0  0  0  0  0  0  0  0  0  0
   -1.4539  -20.4194    0.0000 C   0  0  0  0  0  0  0  0  0  0  0  0
   -2.2039  -21.7185    0.0000 C   0  0  0  0  0  0  0  0  0  0  0  0
   -1.4539  -23.0175    0.0000 C   0  0  0  0  0  0  0  0  0  0  0  0
    0.0461  -23.0175    0.0000 C   0  0  0  0  0  0  0  0  0  0  0  0
    0.7961  -21.7185    0.0000 C   0  0  0  0  0  0  0  0  0  0  0  0
    0.0461  -20.4194    0.0000 C   0  0  0  0  0  0  0  0  0  0  0  0
    0.2752  -16.1660    0.0000 C   0  0  0  0  0  0  0  0  0  0  0  0
    0.0147  -14.6887    0.0000 C   0  0  0  0  0  0  0  0  0  0  0  0
    1.0882  -10.1341    0.0000 C   0  0  0  0  0  0  0  0  0  0  0  0
    1.6012   -8.7246    0.0000 C   0  0  0  0  0  0  0  0  0  0  0  0
    0.6370   -7.5755    0.0000 C   0  0  0  0  0  0  0  0  0  0  0  0
   -0.8402   -7.8360    0.0000 C   0  0  0  0  0  0  0  0  0  0  0  0
   -1.3532   -9.2455    0.0000 C   0  0  0  0  0  0  0  0  0  0  0  0
   -0.3890  -10.3946    0.0000 C   0  0  0  0  0  0  0  0  0  0  0  0
  1  2  2  0
  2  3  1  0
  3  4  1  0
  4  5  2  0
  5  6  1  0
  6  7  2  0
  7  8  1  0
  8  9  1  0
  9 10  1  0
 10 11  2  0
 11 12  1  0
 12 13  2  0
 13 14  1  0
 14 15  2  0
 15 16  1  0
 16 17  2  0
 17 18  1  0
  8 19  1  0
 19 20  2  0
 19 21  1  0
 21 22  1  0
 22 23  2  0
 23 24  1  0
 24 25  2  0
 25 26  1  0
 26 27  2  0
 27 28  1  0
 28 29  2  0
 29 30  1  0
 30 31  2  0
 31 32  1  0
 32 33  2  0
  7 34  1  0
 34 35  2  0
  2 36  1  0
 36 37  1  0
 37 38  2  0
 38 39  1  0
 39 40  2  0
 40 41  1  0
 41 42  1  0
 42 43  1  0
 43 44  1  0
 44 45  1  0
 42 46  1  0
 46 47  2  0
 47 48  1  0
 48 49  2  0
 49 50  1  0
 50 51  2  0
 51 52  1  0
 52 53  2  0
 53 54  1  0
 41 55  1  0
 55 56  2  0
 55 57  1  0
 57 58  1  0
 58 59  2  0
 59 60  1  0
 60 61  2  0
 61 62  1  0
 62 63  2  0
 63 64  1  0
 64 65  2  0
 65 66  1  0
 66 67  2  0
 67 68  1  0
 68 69  2  0
 40 70  1  0
 70 71  2  0
  2 72  1  0
 72 73  2  0
 73 74  1  0
 74 75  2  0
 75 76  1  0
 76 77  2  0
 35  4  1  0
 71 37  1  0
 77 72  1  0
 18 10  1  0
 33 19  1  0
 54 46  1  0
 69 55  1  0
 17 12  1  0
 27 22  1  0
 33 28  1  0
 53 48  1  0
 63 58  1  0
 69 64  1  0
M  END
>  <Candidate_ID>  (241) 
CAND_R2_241

>  <Candidate_Name>  (241) 
PAD-NH-hydroxyethyl

>  <Parent_Seed_ID>  (241) 
TRAIN_055

>  <Parent_Name>  (241) 
PAD

>  <Transformation_Code>  (241) 
NH_hydroxyethyl

>  <Design_Family>  (241) 
P-N-S

>  <Preparation_Type>  (241) 
Additive

>  <Synthesis_Level>  (241) 
B

>  <Parent_Tanimoto_r3>  (241) 
0.7627118644067796

>  <Max_Train_Tanimoto_r3>  (241) 
0.7627118644067796

>  <Risk_Flags>  (241) 
none

$$$$
CAND_R2_242 | PAD-NH-hydroxyethyl-all
     RDKit          2D

 80 92  0  0  0  0  0  0  0  0999 V2000
    3.0165  -12.4322    0.0000 O   0  0  0  0  0  0  0  0  0  0  0  0
    2.0524  -11.2832    0.0000 P   0  0  0  0  0  0  0  0  0  0  0  0
    3.2014  -10.3190    0.0000 O   0  0  0  0  0  0  0  0  0  0  0  0
    4.6110  -10.8320    0.0000 C   0  0  0  0  0  0  0  0  0  0  0  0
    5.7600   -9.8678    0.0000 C   0  0  0  0  0  0  0  0  0  0  0  0
    7.1696  -10.3809    0.0000 C   0  0  0  0  0  0  0  0  0  0  0  0
    7.4300  -11.8581    0.0000 C   0  0  0  0  0  0  0  0  0  0  0  0
    8.8396  -12.3711    0.0000 C   0  0  0  0  0  0  0  0  0  0  0  0
    9.9887  -11.4069    0.0000 N   0  0  0  0  0  0  0  0  0  0  0  0
   11.3982  -11.9200    0.0000 C   0  0  0  0  0  0  0  0  0  0  0  0
   12.5473  -10.9558    0.0000 C   0  0  0  0  0  0  0  0  0  0  0  0
   13.9568  -11.4688    0.0000 O   0  0  0  0  0  0  0  0  0  0  0  0
    9.7282   -9.9297    0.0000 C   0  0  0  0  0  0  0  0  0  0  0  0
   10.7702   -8.8507    0.0000 N   0  0  0  0  0  0  0  0  0  0  0  0
   10.0660   -7.5263    0.0000 C   0  0  0  0  0  0  0  0  0  0  0  0
   10.5790   -6.1167    0.0000 C   0  0  0  0  0  0  0  0  0  0  0  0
    9.6148   -4.9677    0.0000 C   0  0  0  0  0  0  0  0  0  0  0  0
    8.1376   -5.2282    0.0000 C   0  0  0  0  0  0  0  0  0  0  0  0
    7.6246   -6.6377    0.0000 C   0  0  0  0  0  0  0  0  0  0  0  0
    8.5887   -7.7868    0.0000 C   0  0  0  0  0  0  0  0  0  0  0  0
    8.3800   -9.2722    0.0000 S   0  0  0  0  0  0  0  0  0  0  0  0
    9.1001  -13.8483    0.0000 P   0  0  0  0  0  0  0  0  0  0  0  0
    7.6001  -13.8483    0.0000 O   0  0  0  0  0  0  0  0  0  0  0  0
   10.5096  -13.3353    0.0000 O   0  0  0  0  0  0  0  0  0  0  0  0
   11.6587  -14.2995    0.0000 C   0  0  0  0  0  0  0  0  0  0  0  0
   13.0682  -13.7864    0.0000 C   0  0  0  0  0  0  0  0  0  0  0  0
   14.2173  -14.7506    0.0000 C   0  0  0  0  0  0  0  0  0  0  0  0
   13.9568  -16.2278    0.0000 C   0  0  0  0  0  0  0  0  0  0  0  0
   12.5473  -16.7409    0.0000 C   0  0  0  0  0  0  0  0  0  0  0  0
   11.3982  -15.7767    0.0000 C   0  0  0  0  0  0  0  0  0  0  0  0
    9.9887  -16.2897    0.0000 C   0  0  0  0  0  0  0  0  0  0  0  0
    9.7282  -17.7669    0.0000 C   0  0  0  0  0  0  0  0  0  0  0  0
    8.3186  -18.2800    0.0000 C   0  0  0  0  0  0  0  0  0  0  0  0
    7.1696  -17.3158    0.0000 C   0  0  0  0  0  0  0  0  0  0  0  0
    7.4300  -15.8386    0.0000 C   0  0  0  0  0  0  0  0  0  0  0  0
    8.8396  -15.3255    0.0000 C   0  0  0  0  0  0  0  0  0  0  0  0
    6.2810  -12.8223    0.0000 C   0  0  0  0  0  0  0  0  0  0  0  0
    4.8714  -12.3092    0.0000 C   0  0  0  0  0  0  0  0  0  0  0  0
    0.9033  -12.2474    0.0000 O   0  0  0  0  0  0  0  0  0  0  0  0
    1.1638  -13.7246    0.0000 C   0  0  0  0  0  0  0  0  0  0  0  0
    2.5733  -14.2376    0.0000 C   0  0  0  0  0  0  0  0  0  0  0  0
    2.8338  -15.7148    0.0000 C   0  0  0  0  0  0  0  0  0  0  0  0
    1.6847  -16.6790    0.0000 C   0  0  0  0  0  0  0  0  0  0  0  0
    1.9452  -18.1562    0.0000 C   0  0  0  0  0  0  0  0  0  0  0  0
    3.3547  -18.6692    0.0000 N   0  0  0  0  0  0  0  0  0  0  0  0
    4.5038  -17.7050    0.0000 C   0  0  0  0  0  0  0  0  0  0  0  0
    5.9133  -18.2181    0.0000 C   0  0  0  0  0  0  0  0  0  0  0  0
    6.1738  -19.6953    0.0000 O   0  0  0  0  0  0  0  0  0  0  0  0
    3.6152  -20.1464    0.0000 C   0  0  0  0  0  0  0  0  0  0  0  0
    4.9634  -20.8040    0.0000 N   0  0  0  0  0  0  0  0  0  0  0  0
    4.7546  -22.2894    0.0000 C   0  0  0  0  0  0  0  0  0  0  0  0
    5.7188  -23.4385    0.0000 C   0  0  0  0  0  0  0  0  0  0  0  0
    5.2058  -24.8480    0.0000 C   0  0  0  0  0  0  0  0  0  0  0  0
    3.7286  -25.1085    0.0000 C   0  0  0  0  0  0  0  0  0  0  0  0
    2.7644  -23.9594    0.0000 C   0  0  0  0  0  0  0  0  0  0  0  0
    3.2774  -22.5499    0.0000 C   0  0  0  0  0  0  0  0  0  0  0  0
    2.5732  -21.2255    0.0000 S   0  0  0  0  0  0  0  0  0  0  0  0
    0.7961  -19.1204    0.0000 P   0  0  0  0  0  0  0  0  0  0  0  0
    1.9452  -20.0846    0.0000 O   0  0  0  0  0  0  0  0  0  0  0  0
    0.0461  -17.8213    0.0000 O   0  0  0  0  0  0  0  0  0  0  0  0
   -1.4539  -17.8213    0.0000 C   0  0  0  0  0  0  0  0  0  0  0  0
   -2.2039  -16.5223    0.0000 C   0  0  0  0  0  0  0  0  0  0  0  0
   -3.7039  -16.5223    0.0000 C   0  0  0  0  0  0  0  0  0  0  0  0
   -4.4539  -17.8213    0.0000 C   0  0  0  0  0  0  0  0  0  0  0  0
   -3.7039  -19.1204    0.0000 C   0  0  0  0  0  0  0  0  0  0  0  0
   -2.2039  -19.1204    0.0000 C   0  0  0  0  0  0  0  0  0  0  0  0
   -1.4539  -20.4194    0.0000 C   0  0  0  0  0  0  0  0  0  0  0  0
   -2.2039  -21.7185    0.0000 C   0  0  0  0  0  0  0  0  0  0  0  0
   -1.4539  -23.0175    0.0000 C   0  0  0  0  0  0  0  0  0  0  0  0
    0.0461  -23.0175    0.0000 C   0  0  0  0  0  0  0  0  0  0  0  0
    0.7961  -21.7185    0.0000 C   0  0  0  0  0  0  0  0  0  0  0  0
    0.0461  -20.4194    0.0000 C   0  0  0  0  0  0  0  0  0  0  0  0
    0.2752  -16.1660    0.0000 C   0  0  0  0  0  0  0  0  0  0  0  0
    0.0147  -14.6887    0.0000 C   0  0  0  0  0  0  0  0  0  0  0  0
    1.0882  -10.1341    0.0000 C   0  0  0  0  0  0  0  0  0  0  0  0
    1.6012   -8.7246    0.0000 C   0  0  0  0  0  0  0  0  0  0  0  0
    0.6370   -7.5755    0.0000 C   0  0  0  0  0  0  0  0  0  0  0  0
   -0.8402   -7.8360    0.0000 C   0  0  0  0  0  0  0  0  0  0  0  0
   -1.3532   -9.2455    0.0000 C   0  0  0  0  0  0  0  0  0  0  0  0
   -0.3890  -10.3946    0.0000 C   0  0  0  0  0  0  0  0  0  0  0  0
  1  2  2  0
  2  3  1  0
  3  4  1  0
  4  5  2  0
  5  6  1  0
  6  7  2  0
  7  8  1  0
  8  9  1  0
  9 10  1  0
 10 11  1  0
 11 12  1  0
  9 13  1  0
 13 14  2  0
 14 15  1  0
 15 16  2  0
 16 17  1  0
 17 18  2  0
 18 19  1  0
 19 20  2  0
 20 21  1  0
  8 22  1  0
 22 23  2  0
 22 24  1  0
 24 25  1  0
 25 26  2  0
 26 27  1  0
 27 28  2  0
 28 29  1  0
 29 30  2  0
 30 31  1  0
 31 32  2  0
 32 33  1  0
 33 34  2  0
 34 35  1  0
 35 36  2  0
  7 37  1  0
 37 38  2  0
  2 39  1  0
 39 40  1  0
 40 41  2  0
 41 42  1  0
 42 43  2  0
 43 44  1  0
 44 45  1  0
 45 46  1  0
 46 47  1  0
 47 48  1  0
 45 49  1  0
 49 50  2  0
 50 51  1  0
 51 52  2  0
 52 53  1  0
 53 54  2  0
 54 55  1  0
 55 56  2  0
 56 57  1  0
 44 58  1  0
 58 59  2  0
 58 60  1  0
 60 61  1  0
 61 62  2  0
 62 63  1  0
 63 64  2  0
 64 65  1  0
 65 66  2  0
 66 67  1  0
 67 68  2  0
 68 69  1  0
 69 70  2  0
 70 71  1  0
 71 72  2  0
 43 73  1  0
 73 74  2  0
  2 75  1  0
 75 76  2  0
 76 77  1  0
 77 78  2  0
 78 79  1  0
 79 80  2  0
 38  4  1  0
 74 40  1  0
 80 75  1  0
 21 13  1  0
 36 22  1  0
 57 49  1  0
 72 58  1  0
 20 15  1  0
 30 25  1  0
 36 31  1  0
 56 51  1  0
 66 61  1  0
 72 67  1  0
M  END
>  <Candidate_ID>  (242) 
CAND_R2_242

>  <Candidate_Name>  (242) 
PAD-NH-hydroxyethyl-all

>  <Parent_Seed_ID>  (242) 
TRAIN_055

>  <Parent_Name>  (242) 
PAD

>  <Transformation_Code>  (242) 
NH_hydroxyethyl_all

>  <Design_Family>  (242) 
P-N-S

>  <Preparation_Type>  (242) 
Additive

>  <Synthesis_Level>  (242) 
B

>  <Parent_Tanimoto_r3>  (242) 
0.5932203389830508

>  <Max_Train_Tanimoto_r3>  (242) 
0.5932203389830508

>  <Risk_Flags>  (242) 
large structural change from parent; candidate may be outside strict in-domain threshold

$$$$
CAND_R2_243 | PAD-NH-glycidyl
     RDKit          2D

 78 91  0  0  0  0  0  0  0  0999 V2000
    3.0165  -12.4322    0.0000 O   0  0  0  0  0  0  0  0  0  0  0  0
    2.0524  -11.2832    0.0000 P   0  0  0  0  0  0  0  0  0  0  0  0
    3.2014  -10.3190    0.0000 O   0  0  0  0  0  0  0  0  0  0  0  0
    4.6110  -10.8320    0.0000 C   0  0  0  0  0  0  0  0  0  0  0  0
    5.7600   -9.8678    0.0000 C   0  0  0  0  0  0  0  0  0  0  0  0
    7.1696  -10.3809    0.0000 C   0  0  0  0  0  0  0  0  0  0  0  0
    7.4300  -11.8581    0.0000 C   0  0  0  0  0  0  0  0  0  0  0  0
    8.8396  -12.3711    0.0000 C   0  0  0  0  0  0  0  0  0  0  0  0
    9.9887  -11.4069    0.0000 N   0  0  0  0  0  0  0  0  0  0  0  0
    9.7282   -9.9297    0.0000 C   0  0  0  0  0  0  0  0  0  0  0  0
    8.3800   -9.2722    0.0000 N   0  0  0  0  0  0  0  0  0  0  0  0
    8.5887   -7.7868    0.0000 C   0  0  0  0  0  0  0  0  0  0  0  0
    7.6246   -6.6377    0.0000 C   0  0  0  0  0  0  0  0  0  0  0  0
    8.1376   -5.2282    0.0000 C   0  0  0  0  0  0  0  0  0  0  0  0
    9.6148   -4.9677    0.0000 C   0  0  0  0  0  0  0  0  0  0  0  0
   10.5790   -6.1167    0.0000 C   0  0  0  0  0  0  0  0  0  0  0  0
   10.0660   -7.5263    0.0000 C   0  0  0  0  0  0  0  0  0  0  0  0
   10.7702   -8.8507    0.0000 S   0  0  0  0  0  0  0  0  0  0  0  0
    9.1001  -13.8483    0.0000 P   0  0  0  0  0  0  0  0  0  0  0  0
    7.6001  -13.8483    0.0000 O   0  0  0  0  0  0  0  0  0  0  0  0
   10.5096  -13.3353    0.0000 O   0  0  0  0  0  0  0  0  0  0  0  0
   11.6587  -14.2995    0.0000 C   0  0  0  0  0  0  0  0  0  0  0  0
   13.0682  -13.7864    0.0000 C   0  0  0  0  0  0  0  0  0  0  0  0
   14.2173  -14.7506    0.0000 C   0  0  0  0  0  0  0  0  0  0  0  0
   13.9568  -16.2278    0.0000 C   0  0  0  0  0  0  0  0  0  0  0  0
   12.5473  -16.7409    0.0000 C   0  0  0  0  0  0  0  0  0  0  0  0
   11.3982  -15.7767    0.0000 C   0  0  0  0  0  0  0  0  0  0  0  0
    9.9887  -16.2897    0.0000 C   0  0  0  0  0  0  0  0  0  0  0  0
    9.7282  -17.7669    0.0000 C   0  0  0  0  0  0  0  0  0  0  0  0
    8.3186  -18.2800    0.0000 C   0  0  0  0  0  0  0  0  0  0  0  0
    7.1696  -17.3158    0.0000 C   0  0  0  0  0  0  0  0  0  0  0  0
    7.4300  -15.8386    0.0000 C   0  0  0  0  0  0  0  0  0  0  0  0
    8.8396  -15.3255    0.0000 C   0  0  0  0  0  0  0  0  0  0  0  0
    6.2810  -12.8223    0.0000 C   0  0  0  0  0  0  0  0  0  0  0  0
    4.8714  -12.3092    0.0000 C   0  0  0  0  0  0  0  0  0  0  0  0
    0.9033  -12.2474    0.0000 O   0  0  0  0  0  0  0  0  0  0  0  0
    1.1638  -13.7246    0.0000 C   0  0  0  0  0  0  0  0  0  0  0  0
    2.5733  -14.2376    0.0000 C   0  0  0  0  0  0  0  0  0  0  0  0
    2.8338  -15.7148    0.0000 C   0  0  0  0  0  0  0  0  0  0  0  0
    1.6847  -16.6790    0.0000 C   0  0  0  0  0  0  0  0  0  0  0  0
    1.9452  -18.1562    0.0000 C   0  0  0  0  0  0  0  0  0  0  0  0
    3.3547  -18.6692    0.0000 N   0  0  0  0  0  0  0  0  0  0  0  0
    4.5038  -17.7050    0.0000 C   0  0  0  0  0  0  0  0  0  0  0  0
    5.9133  -18.2181    0.0000 C   0  0  0  0  0  0  0  0  0  0  0  0
    7.3905  -17.9576    0.0000 C   0  0  0  0  0  0  0  0  0  0  0  0
    6.8775  -19.3671    0.0000 O   0  0  0  0  0  0  0  0  0  0  0  0
    3.6152  -20.1464    0.0000 C   0  0  0  0  0  0  0  0  0  0  0  0
    4.9634  -20.8040    0.0000 N   0  0  0  0  0  0  0  0  0  0  0  0
    4.7546  -22.2894    0.0000 C   0  0  0  0  0  0  0  0  0  0  0  0
    5.7188  -23.4385    0.0000 C   0  0  0  0  0  0  0  0  0  0  0  0
    5.2058  -24.8480    0.0000 C   0  0  0  0  0  0  0  0  0  0  0  0
    3.7286  -25.1085    0.0000 C   0  0  0  0  0  0  0  0  0  0  0  0
    2.7644  -23.9594    0.0000 C   0  0  0  0  0  0  0  0  0  0  0  0
    3.2774  -22.5499    0.0000 C   0  0  0  0  0  0  0  0  0  0  0  0
    2.5732  -21.2255    0.0000 S   0  0  0  0  0  0  0  0  0  0  0  0
    0.7961  -19.1204    0.0000 P   0  0  0  0  0  0  0  0  0  0  0  0
    1.9452  -20.0846    0.0000 O   0  0  0  0  0  0  0  0  0  0  0  0
    0.0461  -17.8213    0.0000 O   0  0  0  0  0  0  0  0  0  0  0  0
   -1.4539  -17.8213    0.0000 C   0  0  0  0  0  0  0  0  0  0  0  0
   -2.2039  -16.5223    0.0000 C   0  0  0  0  0  0  0  0  0  0  0  0
   -3.7039  -16.5223    0.0000 C   0  0  0  0  0  0  0  0  0  0  0  0
   -4.4539  -17.8213    0.0000 C   0  0  0  0  0  0  0  0  0  0  0  0
   -3.7039  -19.1204    0.0000 C   0  0  0  0  0  0  0  0  0  0  0  0
   -2.2039  -19.1204    0.0000 C   0  0  0  0  0  0  0  0  0  0  0  0
   -1.4539  -20.4194    0.0000 C   0  0  0  0  0  0  0  0  0  0  0  0
   -2.2039  -21.7185    0.0000 C   0  0  0  0  0  0  0  0  0  0  0  0
   -1.4539  -23.0175    0.0000 C   0  0  0  0  0  0  0  0  0  0  0  0
    0.0461  -23.0175    0.0000 C   0  0  0  0  0  0  0  0  0  0  0  0
    0.7961  -21.7185    0.0000 C   0  0  0  0  0  0  0  0  0  0  0  0
    0.0461  -20.4194    0.0000 C   0  0  0  0  0  0  0  0  0  0  0  0
    0.2752  -16.1660    0.0000 C   0  0  0  0  0  0  0  0  0  0  0  0
    0.0147  -14.6887    0.0000 C   0  0  0  0  0  0  0  0  0  0  0  0
    1.0882  -10.1341    0.0000 C   0  0  0  0  0  0  0  0  0  0  0  0
    1.6012   -8.7246    0.0000 C   0  0  0  0  0  0  0  0  0  0  0  0
    0.6370   -7.5755    0.0000 C   0  0  0  0  0  0  0  0  0  0  0  0
   -0.8402   -7.8360    0.0000 C   0  0  0  0  0  0  0  0  0  0  0  0
   -1.3532   -9.2455    0.0000 C   0  0  0  0  0  0  0  0  0  0  0  0
   -0.3890  -10.3946    0.0000 C   0  0  0  0  0  0  0  0  0  0  0  0
  1  2  2  0
  2  3  1  0
  3  4  1  0
  4  5  2  0
  5  6  1  0
  6  7  2  0
  7  8  1  0
  8  9  1  0
  9 10  1  0
 10 11  2  0
 11 12  1  0
 12 13  2  0
 13 14  1  0
 14 15  2  0
 15 16  1  0
 16 17  2  0
 17 18  1  0
  8 19  1  0
 19 20  2  0
 19 21  1  0
 21 22  1  0
 22 23  2  0
 23 24  1  0
 24 25  2  0
 25 26  1  0
 26 27  2  0
 27 28  1  0
 28 29  2  0
 29 30  1  0
 30 31  2  0
 31 32  1  0
 32 33  2  0
  7 34  1  0
 34 35  2  0
  2 36  1  0
 36 37  1  0
 37 38  2  0
 38 39  1  0
 39 40  2  0
 40 41  1  0
 41 42  1  0
 42 43  1  0
 43 44  1  0
 44 45  1  0
 45 46  1  0
 42 47  1  0
 47 48  2  0
 48 49  1  0
 49 50  2  0
 50 51  1  0
 51 52  2  0
 52 53  1  0
 53 54  2  0
 54 55  1  0
 41 56  1  0
 56 57  2  0
 56 58  1  0
 58 59  1  0
 59 60  2  0
 60 61  1  0
 61 62  2  0
 62 63  1  0
 63 64  2  0
 64 65  1  0
 65 66  2  0
 66 67  1  0
 67 68  2  0
 68 69  1  0
 69 70  2  0
 40 71  1  0
 71 72  2  0
  2 73  1  0
 73 74  2  0
 74 75  1  0
 75 76  2  0
 76 77  1  0
 77 78  2  0
 35  4  1  0
 72 37  1  0
 78 73  1  0
 18 10  1  0
 33 19  1  0
 46 44  1  0
 55 47  1  0
 70 56  1  0
 17 12  1  0
 27 22  1  0
 33 28  1  0
 54 49  1  0
 64 59  1  0
 70 65  1  0
M  END
>  <Candidate_ID>  (243) 
CAND_R2_243

>  <Candidate_Name>  (243) 
PAD-NH-glycidyl

>  <Parent_Seed_ID>  (243) 
TRAIN_055

>  <Parent_Name>  (243) 
PAD

>  <Transformation_Code>  (243) 
NH_glycidyl

>  <Design_Family>  (243) 
P-N-S

>  <Preparation_Type>  (243) 
Co-curing

>  <Synthesis_Level>  (243) 
B

>  <Parent_Tanimoto_r3>  (243) 
0.75

>  <Max_Train_Tanimoto_r3>  (243) 
0.75

>  <Risk_Flags>  (243) 
none

$$$$
CAND_R2_244 | PAD-NH-glycidyl-all
     RDKit          2D

 82 96  0  0  0  0  0  0  0  0999 V2000
    3.0165  -12.4322    0.0000 O   0  0  0  0  0  0  0  0  0  0  0  0
    2.0524  -11.2832    0.0000 P   0  0  0  0  0  0  0  0  0  0  0  0
    3.2014  -10.3190    0.0000 O   0  0  0  0  0  0  0  0  0  0  0  0
    4.6110  -10.8320    0.0000 C   0  0  0  0  0  0  0  0  0  0  0  0
    5.7600   -9.8678    0.0000 C   0  0  0  0  0  0  0  0  0  0  0  0
    7.1696  -10.3809    0.0000 C   0  0  0  0  0  0  0  0  0  0  0  0
    7.4300  -11.8581    0.0000 C   0  0  0  0  0  0  0  0  0  0  0  0
    8.8396  -12.3711    0.0000 C   0  0  0  0  0  0  0  0  0  0  0  0
    9.9887  -11.4069    0.0000 N   0  0  0  0  0  0  0  0  0  0  0  0
   11.3982  -11.9200    0.0000 C   0  0  0  0  0  0  0  0  0  0  0  0
   12.5473  -10.9558    0.0000 C   0  0  0  0  0  0  0  0  0  0  0  0
   13.0603   -9.5462    0.0000 C   0  0  0  0  0  0  0  0  0  0  0  0
   14.0245  -10.6953    0.0000 O   0  0  0  0  0  0  0  0  0  0  0  0
    9.7282   -9.9297    0.0000 C   0  0  0  0  0  0  0  0  0  0  0  0
   10.7702   -8.8507    0.0000 N   0  0  0  0  0  0  0  0  0  0  0  0
   10.0660   -7.5263    0.0000 C   0  0  0  0  0  0  0  0  0  0  0  0
   10.5790   -6.1167    0.0000 C   0  0  0  0  0  0  0  0  0  0  0  0
    9.6148   -4.9677    0.0000 C   0  0  0  0  0  0  0  0  0  0  0  0
    8.1376   -5.2282    0.0000 C   0  0  0  0  0  0  0  0  0  0  0  0
    7.6246   -6.6377    0.0000 C   0  0  0  0  0  0  0  0  0  0  0  0
    8.5887   -7.7868    0.0000 C   0  0  0  0  0  0  0  0  0  0  0  0
    8.3800   -9.2722    0.0000 S   0  0  0  0  0  0  0  0  0  0  0  0
    9.1001  -13.8483    0.0000 P   0  0  0  0  0  0  0  0  0  0  0  0
    7.6001  -13.8483    0.0000 O   0  0  0  0  0  0  0  0  0  0  0  0
   10.5096  -13.3353    0.0000 O   0  0  0  0  0  0  0  0  0  0  0  0
   11.6587  -14.2995    0.0000 C   0  0  0  0  0  0  0  0  0  0  0  0
   13.0682  -13.7864    0.0000 C   0  0  0  0  0  0  0  0  0  0  0  0
   14.2173  -14.7506    0.0000 C   0  0  0  0  0  0  0  0  0  0  0  0
   13.9568  -16.2278    0.0000 C   0  0  0  0  0  0  0  0  0  0  0  0
   12.5473  -16.7409    0.0000 C   0  0  0  0  0  0  0  0  0  0  0  0
   11.3982  -15.7767    0.0000 C   0  0  0  0  0  0  0  0  0  0  0  0
    9.9887  -16.2897    0.0000 C   0  0  0  0  0  0  0  0  0  0  0  0
    9.7282  -17.7669    0.0000 C   0  0  0  0  0  0  0  0  0  0  0  0
    8.3186  -18.2800    0.0000 C   0  0  0  0  0  0  0  0  0  0  0  0
    7.1696  -17.3158    0.0000 C   0  0  0  0  0  0  0  0  0  0  0  0
    7.4300  -15.8386    0.0000 C   0  0  0  0  0  0  0  0  0  0  0  0
    8.8396  -15.3255    0.0000 C   0  0  0  0  0  0  0  0  0  0  0  0
    6.2810  -12.8223    0.0000 C   0  0  0  0  0  0  0  0  0  0  0  0
    4.8714  -12.3092    0.0000 C   0  0  0  0  0  0  0  0  0  0  0  0
    0.9033  -12.2474    0.0000 O   0  0  0  0  0  0  0  0  0  0  0  0
    1.1638  -13.7246    0.0000 C   0  0  0  0  0  0  0  0  0  0  0  0
    2.5733  -14.2376    0.0000 C   0  0  0  0  0  0  0  0  0  0  0  0
    2.8338  -15.7148    0.0000 C   0  0  0  0  0  0  0  0  0  0  0  0
    1.6847  -16.6790    0.0000 C   0  0  0  0  0  0  0  0  0  0  0  0
    1.9452  -18.1562    0.0000 C   0  0  0  0  0  0  0  0  0  0  0  0
    3.3547  -18.6692    0.0000 N   0  0  0  0  0  0  0  0  0  0  0  0
    4.5038  -17.7050    0.0000 C   0  0  0  0  0  0  0  0  0  0  0  0
    5.9133  -18.2181    0.0000 C   0  0  0  0  0  0  0  0  0  0  0  0
    7.3905  -17.9576    0.0000 C   0  0  0  0  0  0  0  0  0  0  0  0
    6.8775  -19.3671    0.0000 O   0  0  0  0  0  0  0  0  0  0  0  0
    3.6152  -20.1464    0.0000 C   0  0  0  0  0  0  0  0  0  0  0  0
    4.9634  -20.8040    0.0000 N   0  0  0  0  0  0  0  0  0  0  0  0
    4.7546  -22.2894    0.0000 C   0  0  0  0  0  0  0  0  0  0  0  0
    5.7188  -23.4385    0.0000 C   0  0  0  0  0  0  0  0  0  0  0  0
    5.2058  -24.8480    0.0000 C   0  0  0  0  0  0  0  0  0  0  0  0
    3.7286  -25.1085    0.0000 C   0  0  0  0  0  0  0  0  0  0  0  0
    2.7644  -23.9594    0.0000 C   0  0  0  0  0  0  0  0  0  0  0  0
    3.2774  -22.5499    0.0000 C   0  0  0  0  0  0  0  0  0  0  0  0
    2.5732  -21.2255    0.0000 S   0  0  0  0  0  0  0  0  0  0  0  0
    0.7961  -19.1204    0.0000 P   0  0  0  0  0  0  0  0  0  0  0  0
    1.9452  -20.0846    0.0000 O   0  0  0  0  0  0  0  0  0  0  0  0
    0.0461  -17.8213    0.0000 O   0  0  0  0  0  0  0  0  0  0  0  0
   -1.4539  -17.8213    0.0000 C   0  0  0  0  0  0  0  0  0  0  0  0
   -2.2039  -16.5223    0.0000 C   0  0  0  0  0  0  0  0  0  0  0  0
   -3.7039  -16.5223    0.0000 C   0  0  0  0  0  0  0  0  0  0  0  0
   -4.4539  -17.8213    0.0000 C   0  0  0  0  0  0  0  0  0  0  0  0
   -3.7039  -19.1204    0.0000 C   0  0  0  0  0  0  0  0  0  0  0  0
   -2.2039  -19.1204    0.0000 C   0  0  0  0  0  0  0  0  0  0  0  0
   -1.4539  -20.4194    0.0000 C   0  0  0  0  0  0  0  0  0  0  0  0
   -2.2039  -21.7185    0.0000 C   0  0  0  0  0  0  0  0  0  0  0  0
   -1.4539  -23.0175    0.0000 C   0  0  0  0  0  0  0  0  0  0  0  0
    0.0461  -23.0175    0.0000 C   0  0  0  0  0  0  0  0  0  0  0  0
    0.7961  -21.7185    0.0000 C   0  0  0  0  0  0  0  0  0  0  0  0
    0.0461  -20.4194    0.0000 C   0  0  0  0  0  0  0  0  0  0  0  0
    0.2752  -16.1660    0.0000 C   0  0  0  0  0  0  0  0  0  0  0  0
    0.0147  -14.6887    0.0000 C   0  0  0  0  0  0  0  0  0  0  0  0
    1.0882  -10.1341    0.0000 C   0  0  0  0  0  0  0  0  0  0  0  0
    1.6012   -8.7246    0.0000 C   0  0  0  0  0  0  0  0  0  0  0  0
    0.6370   -7.5755    0.0000 C   0  0  0  0  0  0  0  0  0  0  0  0
   -0.8402   -7.8360    0.0000 C   0  0  0  0  0  0  0  0  0  0  0  0
   -1.3532   -9.2455    0.0000 C   0  0  0  0  0  0  0  0  0  0  0  0
   -0.3890  -10.3946    0.0000 C   0  0  0  0  0  0  0  0  0  0  0  0
  1  2  2  0
  2  3  1  0
  3  4  1  0
  4  5  2  0
  5  6  1  0
  6  7  2  0
  7  8  1  0
  8  9  1  0
  9 10  1  0
 10 11  1  0
 11 12  1  0
 12 13  1  0
  9 14  1  0
 14 15  2  0
 15 16  1  0
 16 17  2  0
 17 18  1  0
 18 19  2  0
 19 20  1  0
 20 21  2  0
 21 22  1  0
  8 23  1  0
 23 24  2  0
 23 25  1  0
 25 26  1  0
 26 27  2  0
 27 28  1  0
 28 29  2  0
 29 30  1  0
 30 31  2  0
 31 32  1  0
 32 33  2  0
 33 34  1  0
 34 35  2  0
 35 36  1  0
 36 37  2  0
  7 38  1  0
 38 39  2  0
  2 40  1  0
 40 41  1  0
 41 42  2  0
 42 43  1  0
 43 44  2  0
 44 45  1  0
 45 46  1  0
 46 47  1  0
 47 48  1  0
 48 49  1  0
 49 50  1  0
 46 51  1  0
 51 52  2  0
 52 53  1  0
 53 54  2  0
 54 55  1  0
 55 56  2  0
 56 57  1  0
 57 58  2  0
 58 59  1  0
 45 60  1  0
 60 61  2  0
 60 62  1  0
 62 63  1  0
 63 64  2  0
 64 65  1  0
 65 66  2  0
 66 67  1  0
 67 68  2  0
 68 69  1  0
 69 70  2  0
 70 71  1  0
 71 72  2  0
 72 73  1  0
 73 74  2  0
 44 75  1  0
 75 76  2  0
  2 77  1  0
 77 78  2  0
 78 79  1  0
 79 80  2  0
 80 81  1  0
 81 82  2  0
 39  4  1  0
 76 41  1  0
 82 77  1  0
 13 11  1  0
 22 14  1  0
 37 23  1  0
 50 48  1  0
 59 51  1  0
 74 60  1  0
 21 16  1  0
 31 26  1  0
 37 32  1  0
 58 53  1  0
 68 63  1  0
 74 69  1  0
M  END
>  <Candidate_ID>  (244) 
CAND_R2_244

>  <Candidate_Name>  (244) 
PAD-NH-glycidyl-all

>  <Parent_Seed_ID>  (244) 
TRAIN_055

>  <Parent_Name>  (244) 
PAD

>  <Transformation_Code>  (244) 
NH_glycidyl_all

>  <Design_Family>  (244) 
P-N-S

>  <Preparation_Type>  (244) 
Co-curing

>  <Synthesis_Level>  (244) 
B

>  <Parent_Tanimoto_r3>  (244) 
0.5833333333333334

>  <Max_Train_Tanimoto_r3>  (244) 
0.5833333333333334

>  <Risk_Flags>  (244) 
large structural change from parent; candidate may be outside strict in-domain threshold

$$$$
CAND_R2_245 | PAD-aromatic-S-to-O-all
     RDKit          2D

 74 86  0  0  0  0  0  0  0  0999 V2000
    3.0165  -12.4322    0.0000 O   0  0  0  0  0  0  0  0  0  0  0  0
    2.0524  -11.2832    0.0000 P   0  0  0  0  0  0  0  0  0  0  0  0
    3.2014  -10.3190    0.0000 O   0  0  0  0  0  0  0  0  0  0  0  0
    4.6110  -10.8320    0.0000 C   0  0  0  0  0  0  0  0  0  0  0  0
    5.7600   -9.8678    0.0000 C   0  0  0  0  0  0  0  0  0  0  0  0
    7.1696  -10.3809    0.0000 C   0  0  0  0  0  0  0  0  0  0  0  0
    7.4300  -11.8581    0.0000 C   0  0  0  0  0  0  0  0  0  0  0  0
    8.8396  -12.3711    0.0000 C   0  0  0  0  0  0  0  0  0  0  0  0
    9.9887  -11.4069    0.0000 N   0  0  0  0  0  0  0  0  0  0  0  0
    9.7282   -9.9297    0.0000 C   0  0  0  0  0  0  0  0  0  0  0  0
    8.3800   -9.2722    0.0000 N   0  0  0  0  0  0  0  0  0  0  0  0
    8.5887   -7.7868    0.0000 C   0  0  0  0  0  0  0  0  0  0  0  0
    7.6246   -6.6377    0.0000 C   0  0  0  0  0  0  0  0  0  0  0  0
    8.1376   -5.2282    0.0000 C   0  0  0  0  0  0  0  0  0  0  0  0
    9.6148   -4.9677    0.0000 C   0  0  0  0  0  0  0  0  0  0  0  0
   10.5790   -6.1167    0.0000 C   0  0  0  0  0  0  0  0  0  0  0  0
   10.0660   -7.5263    0.0000 C   0  0  0  0  0  0  0  0  0  0  0  0
   10.7702   -8.8507    0.0000 O   0  0  0  0  0  0  0  0  0  0  0  0
    9.1001  -13.8483    0.0000 P   0  0  0  0  0  0  0  0  0  0  0  0
    7.6001  -13.8483    0.0000 O   0  0  0  0  0  0  0  0  0  0  0  0
   10.5096  -13.3353    0.0000 O   0  0  0  0  0  0  0  0  0  0  0  0
   11.6587  -14.2995    0.0000 C   0  0  0  0  0  0  0  0  0  0  0  0
   13.0682  -13.7864    0.0000 C   0  0  0  0  0  0  0  0  0  0  0  0
   14.2173  -14.7506    0.0000 C   0  0  0  0  0  0  0  0  0  0  0  0
   13.9568  -16.2278    0.0000 C   0  0  0  0  0  0  0  0  0  0  0  0
   12.5473  -16.7409    0.0000 C   0  0  0  0  0  0  0  0  0  0  0  0
   11.3982  -15.7767    0.0000 C   0  0  0  0  0  0  0  0  0  0  0  0
    9.9887  -16.2897    0.0000 C   0  0  0  0  0  0  0  0  0  0  0  0
    9.7282  -17.7669    0.0000 C   0  0  0  0  0  0  0  0  0  0  0  0
    8.3186  -18.2800    0.0000 C   0  0  0  0  0  0  0  0  0  0  0  0
    7.1696  -17.3158    0.0000 C   0  0  0  0  0  0  0  0  0  0  0  0
    7.4300  -15.8386    0.0000 C   0  0  0  0  0  0  0  0  0  0  0  0
    8.8396  -15.3255    0.0000 C   0  0  0  0  0  0  0  0  0  0  0  0
    6.2810  -12.8223    0.0000 C   0  0  0  0  0  0  0  0  0  0  0  0
    4.8714  -12.3092    0.0000 C   0  0  0  0  0  0  0  0  0  0  0  0
    0.9033  -12.2474    0.0000 O   0  0  0  0  0  0  0  0  0  0  0  0
    1.1638  -13.7246    0.0000 C   0  0  0  0  0  0  0  0  0  0  0  0
    2.5733  -14.2376    0.0000 C   0  0  0  0  0  0  0  0  0  0  0  0
    2.8338  -15.7148    0.0000 C   0  0  0  0  0  0  0  0  0  0  0  0
    1.6847  -16.6790    0.0000 C   0  0  0  0  0  0  0  0  0  0  0  0
    1.9452  -18.1562    0.0000 C   0  0  0  0  0  0  0  0  0  0  0  0
    3.3547  -18.6692    0.0000 N   0  0  0  0  0  0  0  0  0  0  0  0
    3.6152  -20.1464    0.0000 C   0  0  0  0  0  0  0  0  0  0  0  0
    4.9634  -20.8040    0.0000 N   0  0  0  0  0  0  0  0  0  0  0  0
    4.7546  -22.2894    0.0000 C   0  0  0  0  0  0  0  0  0  0  0  0
    5.7188  -23.4385    0.0000 C   0  0  0  0  0  0  0  0  0  0  0  0
    5.2058  -24.8480    0.0000 C   0  0  0  0  0  0  0  0  0  0  0  0
    3.7286  -25.1085    0.0000 C   0  0  0  0  0  0  0  0  0  0  0  0
    2.7644  -23.9594    0.0000 C   0  0  0  0  0  0  0  0  0  0  0  0
    3.2774  -22.5499    0.0000 C   0  0  0  0  0  0  0  0  0  0  0  0
    2.5732  -21.2255    0.0000 O   0  0  0  0  0  0  0  0  0  0  0  0
    0.7961  -19.1204    0.0000 P   0  0  0  0  0  0  0  0  0  0  0  0
    1.9452  -20.0846    0.0000 O   0  0  0  0  0  0  0  0  0  0  0  0
    0.0461  -17.8213    0.0000 O   0  0  0  0  0  0  0  0  0  0  0  0
   -1.4539  -17.8213    0.0000 C   0  0  0  0  0  0  0  0  0  0  0  0
   -2.2039  -16.5223    0.0000 C   0  0  0  0  0  0  0  0  0  0  0  0
   -3.7039  -16.5223    0.0000 C   0  0  0  0  0  0  0  0  0  0  0  0
   -4.4539  -17.8213    0.0000 C   0  0  0  0  0  0  0  0  0  0  0  0
   -3.7039  -19.1204    0.0000 C   0  0  0  0  0  0  0  0  0  0  0  0
   -2.2039  -19.1204    0.0000 C   0  0  0  0  0  0  0  0  0  0  0  0
   -1.4539  -20.4194    0.0000 C   0  0  0  0  0  0  0  0  0  0  0  0
   -2.2039  -21.7185    0.0000 C   0  0  0  0  0  0  0  0  0  0  0  0
   -1.4539  -23.0175    0.0000 C   0  0  0  0  0  0  0  0  0  0  0  0
    0.0461  -23.0175    0.0000 C   0  0  0  0  0  0  0  0  0  0  0  0
    0.7961  -21.7185    0.0000 C   0  0  0  0  0  0  0  0  0  0  0  0
    0.0461  -20.4194    0.0000 C   0  0  0  0  0  0  0  0  0  0  0  0
    0.2752  -16.1660    0.0000 C   0  0  0  0  0  0  0  0  0  0  0  0
    0.0147  -14.6887    0.0000 C   0  0  0  0  0  0  0  0  0  0  0  0
    1.0882  -10.1341    0.0000 C   0  0  0  0  0  0  0  0  0  0  0  0
    1.6012   -8.7246    0.0000 C   0  0  0  0  0  0  0  0  0  0  0  0
    0.6370   -7.5755    0.0000 C   0  0  0  0  0  0  0  0  0  0  0  0
   -0.8402   -7.8360    0.0000 C   0  0  0  0  0  0  0  0  0  0  0  0
   -1.3532   -9.2455    0.0000 C   0  0  0  0  0  0  0  0  0  0  0  0
   -0.3890  -10.3946    0.0000 C   0  0  0  0  0  0  0  0  0  0  0  0
  1  2  2  0
  2  3  1  0
  3  4  1  0
  4  5  2  0
  5  6  1  0
  6  7  2  0
  7  8  1  0
  8  9  1  0
  9 10  1  0
 10 11  2  0
 11 12  1  0
 12 13  2  0
 13 14  1  0
 14 15  2  0
 15 16  1  0
 16 17  2  0
 17 18  1  0
  8 19  1  0
 19 20  2  0
 19 21  1  0
 21 22  1  0
 22 23  2  0
 23 24  1  0
 24 25  2  0
 25 26  1  0
 26 27  2  0
 27 28  1  0
 28 29  2  0
 29 30  1  0
 30 31  2  0
 31 32  1  0
 32 33  2  0
  7 34  1  0
 34 35  2  0
  2 36  1  0
 36 37  1  0
 37 38  2  0
 38 39  1  0
 39 40  2  0
 40 41  1  0
 41 42  1  0
 42 43  1  0
 43 44  2  0
 44 45  1  0
 45 46  2  0
 46 47  1  0
 47 48  2  0
 48 49  1  0
 49 50  2  0
 50 51  1  0
 41 52  1  0
 52 53  2  0
 52 54  1  0
 54 55  1  0
 55 56  2  0
 56 57  1  0
 57 58  2  0
 58 59  1  0
 59 60  2  0
 60 61  1  0
 61 62  2  0
 62 63  1  0
 63 64  2  0
 64 65  1  0
 65 66  2  0
 40 67  1  0
 67 68  2  0
  2 69  1  0
 69 70  2  0
 70 71  1  0
 71 72  2  0
 72 73  1  0
 73 74  2  0
 35  4  1  0
 68 37  1  0
 74 69  1  0
 18 10  1  0
 33 19  1  0
 51 43  1  0
 66 52  1  0
 17 12  1  0
 27 22  1  0
 33 28  1  0
 50 45  1  0
 60 55  1  0
 66 61  1  0
M  END
>  <Candidate_ID>  (245) 
CAND_R2_245

>  <Candidate_Name>  (245) 
PAD-aromatic-S-to-O-all

>  <Parent_Seed_ID>  (245) 
TRAIN_055

>  <Parent_Name>  (245) 
PAD

>  <Transformation_Code>  (245) 
aromatic_S_to_O_all

>  <Design_Family>  (245) 
P-N

>  <Preparation_Type>  (245) 
Additive

>  <Synthesis_Level>  (245) 
B

>  <Parent_Tanimoto_r3>  (245) 
0.6822429906542056

>  <Max_Train_Tanimoto_r3>  (245) 
0.6822429906542056

>  <Risk_Flags>  (245) 
candidate may be outside strict in-domain threshold

$$$$
CAND_R2_246 | DOPO-PEPA-hydroxy
     RDKit          2D

 27 31  0  0  0  0  0  0  0  0999 V2000
   -8.6549    1.7098    0.0000 O   0  0  0  0  0  0  0  0  0  0  0  0
   -7.5058    0.7456    0.0000 P   0  0  0  0  0  0  0  0  0  0  0  0
   -6.0963    1.2586    0.0000 O   0  0  0  0  0  0  0  0  0  0  0  0
   -4.9472    0.2945    0.0000 C   0  0  0  0  0  0  0  0  0  0  0  0
   -5.2077   -1.1827    0.0000 C   0  0  0  0  0  0  0  0  0  0  0  0
   -4.0586   -2.1469    0.0000 C   0  0  0  0  0  0  0  0  0  0  0  0
   -2.6491   -1.6339    0.0000 O   0  0  0  0  0  0  0  0  0  0  0  0
   -1.5000   -2.5981    0.0000 P   0  0  0  0  0  0  0  0  0  0  0  0
   -2.6491   -3.5623    0.0000 O   0  0  0  0  0  0  0  0  0  0  0  0
   -0.7500   -3.8971    0.0000 O   0  0  0  0  0  0  0  0  0  0  0  0
    0.7500   -3.8971    0.0000 C   0  0  0  0  0  0  0  0  0  0  0  0
    1.5000   -5.1962    0.0000 C   0  0  0  0  0  0  0  0  0  0  0  0
    3.0000   -5.1962    0.0000 C   0  0  0  0  0  0  0  0  0  0  0  0
    3.7500   -3.8971    0.0000 C   0  0  0  0  0  0  0  0  0  0  0  0
    5.2500   -3.8971    0.0000 O   0  0  0  0  0  0  0  0  0  0  0  0
    3.0000   -2.5981    0.0000 C   0  0  0  0  0  0  0  0  0  0  0  0
    1.5000   -2.5981    0.0000 C   0  0  0  0  0  0  0  0  0  0  0  0
    0.7500   -1.2990    0.0000 C   0  0  0  0  0  0  0  0  0  0  0  0
    1.5000    0.0000    0.0000 C   0  0  0  0  0  0  0  0  0  0  0  0
    0.7500    1.2990    0.0000 C   0  0  0  0  0  0  0  0  0  0  0  0
   -0.7500    1.2990    0.0000 C   0  0  0  0  0  0  0  0  0  0  0  0
   -1.5000    0.0000    0.0000 C   0  0  0  0  0  0  0  0  0  0  0  0
   -0.7500   -1.2990    0.0000 C   0  0  0  0  0  0  0  0  0  0  0  0
   -6.6172   -1.6958    0.0000 C   0  0  0  0  0  0  0  0  0  0  0  0
   -7.7663   -0.7316    0.0000 O   0  0  0  0  0  0  0  0  0  0  0  0
   -6.3711   -0.2065    0.0000 C   0  0  0  0  0  0  0  0  0  0  0  0
   -6.3424   -0.2306    0.0000 O   0  0  0  0  0  0  0  0  0  0  0  0
  1  2  2  0
  2  3  1  0
  3  4  1  0
  4  5  1  0
  5  6  1  0
  6  7  1  0
  7  8  1  0
  8  9  2  0
  8 10  1  0
 10 11  1  0
 11 12  2  0
 12 13  1  0
 13 14  2  0
 14 15  1  0
 14 16  1  0
 16 17  2  0
 17 18  1  0
 18 19  2  0
 19 20  1  0
 20 21  2  0
 21 22  1  0
 22 23  2  0
  5 24  1  0
 24 25  1  0
  5 26  1  0
 26 27  1  0
 25  2  1  0
 27  2  1  0
 23  8  1  0
 17 11  1  0
 23 18  1  0
M  END
>  <Candidate_ID>  (246) 
CAND_R2_246

>  <Candidate_Name>  (246) 
DOPO-PEPA-hydroxy

>  <Parent_Seed_ID>  (246) 
TRAIN_075

>  <Parent_Name>  (246) 
DOPO-PEPA

>  <Transformation_Code>  (246) 
hydroxy

>  <Design_Family>  (246) 
P-only

>  <Preparation_Type>  (246) 
Additive

>  <Synthesis_Level>  (246) 
B

>  <Parent_Tanimoto_r3>  (246) 
0.684931506849315

>  <Max_Train_Tanimoto_r3>  (246) 
0.684931506849315

>  <Risk_Flags>  (246) 
DOPO-core substitution route needs confirmation; candidate may be outside strict in-domain threshold

$$$$
CAND_R2_247 | DOPO-PEPA-hydroxymethyl
     RDKit          2D

 28 32  0  0  0  0  0  0  0  0999 V2000
   -8.6549    1.7098    0.0000 O   0  0  0  0  0  0  0  0  0  0  0  0
   -7.5058    0.7456    0.0000 P   0  0  0  0  0  0  0  0  0  0  0  0
   -6.0963    1.2586    0.0000 O   0  0  0  0  0  0  0  0  0  0  0  0
   -4.9472    0.2945    0.0000 C   0  0  0  0  0  0  0  0  0  0  0  0
   -5.2077   -1.1827    0.0000 C   0  0  0  0  0  0  0  0  0  0  0  0
   -4.0586   -2.1469    0.0000 C   0  0  0  0  0  0  0  0  0  0  0  0
   -2.6491   -1.6339    0.0000 O   0  0  0  0  0  0  0  0  0  0  0  0
   -1.5000   -2.5981    0.0000 P   0  0  0  0  0  0  0  0  0  0  0  0
   -2.6491   -3.5623    0.0000 O   0  0  0  0  0  0  0  0  0  0  0  0
   -0.7500   -3.8971    0.0000 O   0  0  0  0  0  0  0  0  0  0  0  0
    0.7500   -3.8971    0.0000 C   0  0  0  0  0  0  0  0  0  0  0  0
    1.5000   -5.1962    0.0000 C   0  0  0  0  0  0  0  0  0  0  0  0
    3.0000   -5.1962    0.0000 C   0  0  0  0  0  0  0  0  0  0  0  0
    3.7500   -3.8971    0.0000 C   0  0  0  0  0  0  0  0  0  0  0  0
    5.2500   -3.8971    0.0000 C   0  0  0  0  0  0  0  0  0  0  0  0
    6.0000   -5.1962    0.0000 O   0  0  0  0  0  0  0  0  0  0  0  0
    3.0000   -2.5981    0.0000 C   0  0  0  0  0  0  0  0  0  0  0  0
    1.5000   -2.5981    0.0000 C   0  0  0  0  0  0  0  0  0  0  0  0
    0.7500   -1.2990    0.0000 C   0  0  0  0  0  0  0  0  0  0  0  0
    1.5000    0.0000    0.0000 C   0  0  0  0  0  0  0  0  0  0  0  0
    0.7500    1.2990    0.0000 C   0  0  0  0  0  0  0  0  0  0  0  0
   -0.7500    1.2990    0.0000 C   0  0  0  0  0  0  0  0  0  0  0  0
   -1.5000    0.0000    0.0000 C   0  0  0  0  0  0  0  0  0  0  0  0
   -0.7500   -1.2990    0.0000 C   0  0  0  0  0  0  0  0  0  0  0  0
   -6.6172   -1.6958    0.0000 C   0  0  0  0  0  0  0  0  0  0  0  0
   -7.7663   -0.7316    0.0000 O   0  0  0  0  0  0  0  0  0  0  0  0
   -6.3711   -0.2065    0.0000 C   0  0  0  0  0  0  0  0  0  0  0  0
   -6.3424   -0.2306    0.0000 O   0  0  0  0  0  0  0  0  0  0  0  0
  1  2  2  0
  2  3  1  0
  3  4  1  0
  4  5  1  0
  5  6  1  0
  6  7  1  0
  7  8  1  0
  8  9  2  0
  8 10  1  0
 10 11  1  0
 11 12  2  0
 12 13  1  0
 13 14  2  0
 14 15  1  0
 15 16  1  0
 14 17  1  0
 17 18  2  0
 18 19  1  0
 19 20  2  0
 20 21  1  0
 21 22  2  0
 22 23  1  0
 23 24  2  0
  5 25  1  0
 25 26  1  0
  5 27  1  0
 27 28  1  0
 26  2  1  0
 28  2  1  0
 24  8  1  0
 18 11  1  0
 24 19  1  0
M  END
>  <Candidate_ID>  (247) 
CAND_R2_247

>  <Candidate_Name>  (247) 
DOPO-PEPA-hydroxymethyl

>  <Parent_Seed_ID>  (247) 
TRAIN_075

>  <Parent_Name>  (247) 
DOPO-PEPA

>  <Transformation_Code>  (247) 
hydroxymethyl

>  <Design_Family>  (247) 
P-only

>  <Preparation_Type>  (247) 
Additive

>  <Synthesis_Level>  (247) 
B

>  <Parent_Tanimoto_r3>  (247) 
0.6666666666666666

>  <Max_Train_Tanimoto_r3>  (247) 
0.6666666666666666

>  <Risk_Flags>  (247) 
DOPO-core substitution route needs confirmation; candidate may be outside strict in-domain threshold

$$$$
CAND_R2_248 | DOPO-PEPA-carboxamide
     RDKit          2D

 29 33  0  0  0  0  0  0  0  0999 V2000
    6.0000   -5.1962    0.0000 N   0  0  0  0  0  0  0  0  0  0  0  0
    5.2500   -3.8971    0.0000 C   0  0  0  0  0  0  0  0  0  0  0  0
    6.0000   -2.5981    0.0000 O   0  0  0  0  0  0  0  0  0  0  0  0
    3.7500   -3.8971    0.0000 C   0  0  0  0  0  0  0  0  0  0  0  0
    3.0000   -5.1962    0.0000 C   0  0  0  0  0  0  0  0  0  0  0  0
    1.5000   -5.1962    0.0000 C   0  0  0  0  0  0  0  0  0  0  0  0
    0.7500   -3.8971    0.0000 C   0  0  0  0  0  0  0  0  0  0  0  0
    1.5000   -2.5981    0.0000 C   0  0  0  0  0  0  0  0  0  0  0  0
    3.0000   -2.5981    0.0000 C   0  0  0  0  0  0  0  0  0  0  0  0
    0.7500   -1.2990    0.0000 C   0  0  0  0  0  0  0  0  0  0  0  0
    1.5000    0.0000    0.0000 C   0  0  0  0  0  0  0  0  0  0  0  0
    0.7500    1.2990    0.0000 C   0  0  0  0  0  0  0  0  0  0  0  0
   -0.7500    1.2990    0.0000 C   0  0  0  0  0  0  0  0  0  0  0  0
   -1.5000    0.0000    0.0000 C   0  0  0  0  0  0  0  0  0  0  0  0
   -0.7500   -1.2990    0.0000 C   0  0  0  0  0  0  0  0  0  0  0  0
   -1.5000   -2.5981    0.0000 P   0  0  0  0  0  0  0  0  0  0  0  0
   -2.6491   -3.5623    0.0000 O   0  0  0  0  0  0  0  0  0  0  0  0
   -2.6491   -1.6339    0.0000 O   0  0  0  0  0  0  0  0  0  0  0  0
   -4.0586   -2.1469    0.0000 C   0  0  0  0  0  0  0  0  0  0  0  0
   -5.2077   -1.1827    0.0000 C   0  0  0  0  0  0  0  0  0  0  0  0
   -4.9472    0.2945    0.0000 C   0  0  0  0  0  0  0  0  0  0  0  0
   -6.0963    1.2586    0.0000 O   0  0  0  0  0  0  0  0  0  0  0  0
   -7.5058    0.7456    0.0000 P   0  0  0  0  0  0  0  0  0  0  0  0
   -8.6549    1.7098    0.0000 O   0  0  0  0  0  0  0  0  0  0  0  0
   -7.7663   -0.7316    0.0000 O   0  0  0  0  0  0  0  0  0  0  0  0
   -6.6172   -1.6958    0.0000 C   0  0  0  0  0  0  0  0  0  0  0  0
   -6.3424   -0.2306    0.0000 O   0  0  0  0  0  0  0  0  0  0  0  0
   -6.3711   -0.2065    0.0000 C   0  0  0  0  0  0  0  0  0  0  0  0
   -0.7500   -3.8971    0.0000 O   0  0  0  0  0  0  0  0  0  0  0  0
  1  2  1  0
  2  3  2  0
  2  4  1  0
  4  5  2  0
  5  6  1  0
  6  7  2  0
  7  8  1  0
  8  9  2  0
  8 10  1  0
 10 11  2  0
 11 12  1  0
 12 13  2  0
 13 14  1  0
 14 15  2  0
 15 16  1  0
 16 17  2  0
 16 18  1  0
 18 19  1  0
 19 20  1  0
 20 21  1  0
 21 22  1  0
 22 23  1  0
 23 24  2  0
 23 25  1  0
 25 26  1  0
 23 27  1  0
 27 28  1  0
 16 29  1  0
  9  4  1  0
 15 10  1  0
 26 20  1  0
 29  7  1  0
 28 20  1  0
M  END
>  <Candidate_ID>  (248) 
CAND_R2_248

>  <Candidate_Name>  (248) 
DOPO-PEPA-carboxamide

>  <Parent_Seed_ID>  (248) 
TRAIN_075

>  <Parent_Name>  (248) 
DOPO-PEPA

>  <Transformation_Code>  (248) 
carboxamide

>  <Design_Family>  (248) 
P-N

>  <Preparation_Type>  (248) 
Additive

>  <Synthesis_Level>  (248) 
B

>  <Parent_Tanimoto_r3>  (248) 
0.6493506493506493

>  <Max_Train_Tanimoto_r3>  (248) 
0.6493506493506493

>  <Risk_Flags>  (248) 
DOPO-core substitution route needs confirmation; large structural change from parent; candidate may be outside strict in-domain threshold

$$$$
CAND_R2_249 | DOPO-PEPA-boronic-acid
     RDKit          2D

 29 33  0  0  0  0  0  0  0  0999 V2000
   -8.6549    1.7098    0.0000 O   0  0  0  0  0  0  0  0  0  0  0  0
   -7.5058    0.7456    0.0000 P   0  0  0  0  0  0  0  0  0  0  0  0
   -6.0963    1.2586    0.0000 O   0  0  0  0  0  0  0  0  0  0  0  0
   -4.9472    0.2945    0.0000 C   0  0  0  0  0  0  0  0  0  0  0  0
   -5.2077   -1.1827    0.0000 C   0  0  0  0  0  0  0  0  0  0  0  0
   -4.0586   -2.1469    0.0000 C   0  0  0  0  0  0  0  0  0  0  0  0
   -2.6491   -1.6339    0.0000 O   0  0  0  0  0  0  0  0  0  0  0  0
   -1.5000   -2.5981    0.0000 P   0  0  0  0  0  0  0  0  0  0  0  0
   -2.6491   -3.5623    0.0000 O   0  0  0  0  0  0  0  0  0  0  0  0
   -0.7500   -3.8971    0.0000 O   0  0  0  0  0  0  0  0  0  0  0  0
    0.7500   -3.8971    0.0000 C   0  0  0  0  0  0  0  0  0  0  0  0
    1.5000   -5.1962    0.0000 C   0  0  0  0  0  0  0  0  0  0  0  0
    3.0000   -5.1962    0.0000 C   0  0  0  0  0  0  0  0  0  0  0  0
    3.7500   -3.8971    0.0000 C   0  0  0  0  0  0  0  0  0  0  0  0
    5.2500   -3.8971    0.0000 B   0  0  0  0  0  0  0  0  0  0  0  0
    6.0000   -5.1962    0.0000 O   0  0  0  0  0  0  0  0  0  0  0  0
    6.0000   -2.5981    0.0000 O   0  0  0  0  0  0  0  0  0  0  0  0
    3.0000   -2.5981    0.0000 C   0  0  0  0  0  0  0  0  0  0  0  0
    1.5000   -2.5981    0.0000 C   0  0  0  0  0  0  0  0  0  0  0  0
    0.7500   -1.2990    0.0000 C   0  0  0  0  0  0  0  0  0  0  0  0
    1.5000    0.0000    0.0000 C   0  0  0  0  0  0  0  0  0  0  0  0
    0.7500    1.2990    0.0000 C   0  0  0  0  0  0  0  0  0  0  0  0
   -0.7500    1.2990    0.0000 C   0  0  0  0  0  0  0  0  0  0  0  0
   -1.5000    0.0000    0.0000 C   0  0  0  0  0  0  0  0  0  0  0  0
   -0.7500   -1.2990    0.0000 C   0  0  0  0  0  0  0  0  0  0  0  0
   -6.6172   -1.6958    0.0000 C   0  0  0  0  0  0  0  0  0  0  0  0
   -7.7663   -0.7316    0.0000 O   0  0  0  0  0  0  0  0  0  0  0  0
   -6.3711   -0.2065    0.0000 C   0  0  0  0  0  0  0  0  0  0  0  0
   -6.3424   -0.2306    0.0000 O   0  0  0  0  0  0  0  0  0  0  0  0
  1  2  2  0
  2  3  1  0
  3  4  1  0
  4  5  1  0
  5  6  1  0
  6  7  1  0
  7  8  1  0
  8  9  2  0
  8 10  1  0
 10 11  1  0
 11 12  2  0
 12 13  1  0
 13 14  2  0
 14 15  1  0
 15 16  1  0
 15 17  1  0
 14 18  1  0
 18 19  2  0
 19 20  1  0
 20 21  2  0
 21 22  1  0
 22 23  2  0
 23 24  1  0
 24 25  2  0
  5 26  1  0
 26 27  1  0
  5 28  1  0
 28 29  1  0
 27  2  1  0
 29  2  1  0
 25  8  1  0
 19 11  1  0
 25 20  1  0
M  END
>  <Candidate_ID>  (249) 
CAND_R2_249

>  <Candidate_Name>  (249) 
DOPO-PEPA-boronic-acid

>  <Parent_Seed_ID>  (249) 
TRAIN_075

>  <Parent_Name>  (249) 
DOPO-PEPA

>  <Transformation_Code>  (249) 
boronic_acid

>  <Design_Family>  (249) 
P-B

>  <Preparation_Type>  (249) 
Additive

>  <Synthesis_Level>  (249) 
B

>  <Parent_Tanimoto_r3>  (249) 
0.6578947368421053

>  <Max_Train_Tanimoto_r3>  (249) 
0.6578947368421053

>  <Risk_Flags>  (249) 
DOPO-core substitution route needs confirmation; candidate may be outside strict in-domain threshold

$$$$
CAND_R2_250 | DOPO-PEPA-pinacol-boronate
     RDKit          2D

 35 40  0  0  0  0  0  0  0  0999 V2000
    7.8701   -1.6799    0.0000 C   0  0  0  0  0  0  0  0  0  0  0  0
    7.5583   -3.1471    0.0000 C   0  0  0  0  0  0  0  0  0  0  0  0
    9.0500   -3.3039    0.0000 C   0  0  0  0  0  0  0  0  0  0  0  0
    6.1317   -2.6836    0.0000 O   0  0  0  0  0  0  0  0  0  0  0  0
    5.2500   -3.8971    0.0000 B   0  0  0  0  0  0  0  0  0  0  0  0
    3.7500   -3.8971    0.0000 C   0  0  0  0  0  0  0  0  0  0  0  0
    3.0000   -5.1962    0.0000 C   0  0  0  0  0  0  0  0  0  0  0  0
    1.5000   -5.1962    0.0000 C   0  0  0  0  0  0  0  0  0  0  0  0
    0.7500   -3.8971    0.0000 C   0  0  0  0  0  0  0  0  0  0  0  0
    1.5000   -2.5981    0.0000 C   0  0  0  0  0  0  0  0  0  0  0  0
    3.0000   -2.5981    0.0000 C   0  0  0  0  0  0  0  0  0  0  0  0
    0.7500   -1.2990    0.0000 C   0  0  0  0  0  0  0  0  0  0  0  0
    1.5000    0.0000    0.0000 C   0  0  0  0  0  0  0  0  0  0  0  0
    0.7500    1.2990    0.0000 C   0  0  0  0  0  0  0  0  0  0  0  0
   -0.7500    1.2990    0.0000 C   0  0  0  0  0  0  0  0  0  0  0  0
   -1.5000    0.0000    0.0000 C   0  0  0  0  0  0  0  0  0  0  0  0
   -0.7500   -1.2990    0.0000 C   0  0  0  0  0  0  0  0  0  0  0  0
   -1.5000   -2.5981    0.0000 P   0  0  0  0  0  0  0  0  0  0  0  0
   -2.6491   -3.5623    0.0000 O   0  0  0  0  0  0  0  0  0  0  0  0
   -2.6491   -1.6339    0.0000 O   0  0  0  0  0  0  0  0  0  0  0  0
   -4.0586   -2.1469    0.0000 C   0  0  0  0  0  0  0  0  0  0  0  0
   -5.2077   -1.1827    0.0000 C   0  0  0  0  0  0  0  0  0  0  0  0
   -4.9472    0.2945    0.0000 C   0  0  0  0  0  0  0  0  0  0  0  0
   -6.0963    1.2586    0.0000 O   0  0  0  0  0  0  0  0  0  0  0  0
   -7.5058    0.7456    0.0000 P   0  0  0  0  0  0  0  0  0  0  0  0
   -8.6549    1.7098    0.0000 O   0  0  0  0  0  0  0  0  0  0  0  0
   -7.7663   -0.7316    0.0000 O   0  0  0  0  0  0  0  0  0  0  0  0
   -6.6172   -1.6958    0.0000 C   0  0  0  0  0  0  0  0  0  0  0  0
   -6.3424   -0.2306    0.0000 O   0  0  0  0  0  0  0  0  0  0  0  0
   -6.3711   -0.2065    0.0000 C   0  0  0  0  0  0  0  0  0  0  0  0
   -0.7500   -3.8971    0.0000 O   0  0  0  0  0  0  0  0  0  0  0  0
    6.1317   -5.1106    0.0000 O   0  0  0  0  0  0  0  0  0  0  0  0
    7.5583   -4.6471    0.0000 C   0  0  0  0  0  0  0  0  0  0  0  0
    9.0500   -4.4903    0.0000 C   0  0  0  0  0  0  0  0  0  0  0  0
    7.8701   -6.1143    0.0000 C   0  0  0  0  0  0  0  0  0  0  0  0
  1  2  1  0
  2  3  1  0
  2  4  1  0
  4  5  1  0
  5  6  1  0
  6  7  2  0
  7  8  1  0
  8  9  2  0
  9 10  1  0
 10 11  2  0
 10 12  1  0
 12 13  2  0
 13 14  1  0
 14 15  2  0
 15 16  1  0
 16 17  2  0
 17 18  1  0
 18 19  2  0
 18 20  1  0
 20 21  1  0
 21 22  1  0
 22 23  1  0
 23 24  1  0
 24 25  1  0
 25 26  2  0
 25 27  1  0
 27 28  1  0
 25 29  1  0
 29 30  1  0
 18 31  1  0
  5 32  1  0
 32 33  1  0
 33 34  1  0
 33 35  1  0
 33  2  1  0
 11  6  1  0
 17 12  1  0
 28 22  1  0
 31  9  1  0
 30 22  1  0
M  END
>  <Candidate_ID>  (250) 
CAND_R2_250

>  <Candidate_Name>  (250) 
DOPO-PEPA-pinacol-boronate

>  <Parent_Seed_ID>  (250) 
TRAIN_075

>  <Parent_Name>  (250) 
DOPO-PEPA

>  <Transformation_Code>  (250) 
pinacol_boronate

>  <Design_Family>  (250) 
P-B

>  <Preparation_Type>  (250) 
Additive

>  <Synthesis_Level>  (250) 
B

>  <Parent_Tanimoto_r3>  (250) 
0.6024096385542169

>  <Max_Train_Tanimoto_r3>  (250) 
0.6024096385542169

>  <Risk_Flags>  (250) 
DOPO-core substitution route needs confirmation; large structural change from parent; candidate may be outside strict in-domain threshold

$$$$
CAND_R2_251 | DOPO-PEPA-trimethoxysilyl
     RDKit          2D

 33 37  0  0  0  0  0  0  0  0999 V2000
    7.5000   -2.5981    0.0000 C   0  0  0  0  0  0  0  0  0  0  0  0
    6.7500   -3.8971    0.0000 O   0  0  0  0  0  0  0  0  0  0  0  0
    5.2500   -3.8971    0.0000 Si  0  0  0  0  0  4  0  0  0  0  0  0
    5.2500   -5.3971    0.0000 O   0  0  0  0  0  0  0  0  0  0  0  0
    6.5490   -6.1471    0.0000 C   0  0  0  0  0  0  0  0  0  0  0  0
    5.2500   -2.3971    0.0000 O   0  0  0  0  0  0  0  0  0  0  0  0
    6.5490   -1.6471    0.0000 C   0  0  0  0  0  0  0  0  0  0  0  0
    3.7500   -3.8971    0.0000 C   0  0  0  0  0  0  0  0  0  0  0  0
    3.0000   -5.1962    0.0000 C   0  0  0  0  0  0  0  0  0  0  0  0
    1.5000   -5.1962    0.0000 C   0  0  0  0  0  0  0  0  0  0  0  0
    0.7500   -3.8971    0.0000 C   0  0  0  0  0  0  0  0  0  0  0  0
    1.5000   -2.5981    0.0000 C   0  0  0  0  0  0  0  0  0  0  0  0
    3.0000   -2.5981    0.0000 C   0  0  0  0  0  0  0  0  0  0  0  0
    0.7500   -1.2990    0.0000 C   0  0  0  0  0  0  0  0  0  0  0  0
    1.5000    0.0000    0.0000 C   0  0  0  0  0  0  0  0  0  0  0  0
    0.7500    1.2990    0.0000 C   0  0  0  0  0  0  0  0  0  0  0  0
   -0.7500    1.2990    0.0000 C   0  0  0  0  0  0  0  0  0  0  0  0
   -1.5000    0.0000    0.0000 C   0  0  0  0  0  0  0  0  0  0  0  0
   -0.7500   -1.2990    0.0000 C   0  0  0  0  0  0  0  0  0  0  0  0
   -1.5000   -2.5981    0.0000 P   0  0  0  0  0  0  0  0  0  0  0  0
   -2.6491   -3.5623    0.0000 O   0  0  0  0  0  0  0  0  0  0  0  0
   -2.6491   -1.6339    0.0000 O   0  0  0  0  0  0  0  0  0  0  0  0
   -4.0586   -2.1469    0.0000 C   0  0  0  0  0  0  0  0  0  0  0  0
   -5.2077   -1.1827    0.0000 C   0  0  0  0  0  0  0  0  0  0  0  0
   -4.9472    0.2945    0.0000 C   0  0  0  0  0  0  0  0  0  0  0  0
   -6.0963    1.2586    0.0000 O   0  0  0  0  0  0  0  0  0  0  0  0
   -7.5058    0.7456    0.0000 P   0  0  0  0  0  0  0  0  0  0  0  0
   -8.6549    1.7098    0.0000 O   0  0  0  0  0  0  0  0  0  0  0  0
   -7.7663   -0.7316    0.0000 O   0  0  0  0  0  0  0  0  0  0  0  0
   -6.6172   -1.6958    0.0000 C   0  0  0  0  0  0  0  0  0  0  0  0
   -6.3424   -0.2306    0.0000 O   0  0  0  0  0  0  0  0  0  0  0  0
   -6.3711   -0.2065    0.0000 C   0  0  0  0  0  0  0  0  0  0  0  0
   -0.7500   -3.8971    0.0000 O   0  0  0  0  0  0  0  0  0  0  0  0
  1  2  1  0
  2  3  1  0
  3  4  1  0
  4  5  1  0
  3  6  1  0
  6  7  1  0
  3  8  1  0
  8  9  2  0
  9 10  1  0
 10 11  2  0
 11 12  1  0
 12 13  2  0
 12 14  1  0
 14 15  2  0
 15 16  1  0
 16 17  2  0
 17 18  1  0
 18 19  2  0
 19 20  1  0
 20 21  2  0
 20 22  1  0
 22 23  1  0
 23 24  1  0
 24 25  1  0
 25 26  1  0
 26 27  1  0
 27 28  2  0
 27 29  1  0
 29 30  1  0
 27 31  1  0
 31 32  1  0
 20 33  1  0
 13  8  1  0
 19 14  1  0
 30 24  1  0
 33 11  1  0
 32 24  1  0
M  END
>  <Candidate_ID>  (251) 
CAND_R2_251

>  <Candidate_Name>  (251) 
DOPO-PEPA-trimethoxysilyl

>  <Parent_Seed_ID>  (251) 
TRAIN_075

>  <Parent_Name>  (251) 
DOPO-PEPA

>  <Transformation_Code>  (251) 
trimethoxysilyl

>  <Design_Family>  (251) 
P-Si

>  <Preparation_Type>  (251) 
Additive + Secondary Crosslinking

>  <Synthesis_Level>  (251) 
B

>  <Parent_Tanimoto_r3>  (251) 
0.6329113924050633

>  <Max_Train_Tanimoto_r3>  (251) 
0.6329113924050633

>  <Risk_Flags>  (251) 
DOPO-core substitution route needs confirmation; large structural change from parent; candidate may be outside strict in-domain threshold

$$$$
CAND_R2_252 | DOPO-PEPA-triethoxysilyl
     RDKit          2D

 36 40  0  0  0  0  0  0  0  0999 V2000
    9.0000   -2.5981    0.0000 C   0  0  0  0  0  0  0  0  0  0  0  0
    7.5000   -2.5981    0.0000 C   0  0  0  0  0  0  0  0  0  0  0  0
    6.7500   -3.8971    0.0000 O   0  0  0  0  0  0  0  0  0  0  0  0
    5.2500   -3.8971    0.0000 Si  0  0  0  0  0  4  0  0  0  0  0  0
    5.2500   -5.3971    0.0000 O   0  0  0  0  0  0  0  0  0  0  0  0
    6.5490   -6.1471    0.0000 C   0  0  0  0  0  0  0  0  0  0  0  0
    6.5490   -7.6471    0.0000 C   0  0  0  0  0  0  0  0  0  0  0  0
    5.2500   -2.3971    0.0000 O   0  0  0  0  0  0  0  0  0  0  0  0
    6.5490   -1.6471    0.0000 C   0  0  0  0  0  0  0  0  0  0  0  0
    6.5490   -0.1471    0.0000 C   0  0  0  0  0  0  0  0  0  0  0  0
    3.7500   -3.8971    0.0000 C   0  0  0  0  0  0  0  0  0  0  0  0
    3.0000   -5.1962    0.0000 C   0  0  0  0  0  0  0  0  0  0  0  0
    1.5000   -5.1962    0.0000 C   0  0  0  0  0  0  0  0  0  0  0  0
    0.7500   -3.8971    0.0000 C   0  0  0  0  0  0  0  0  0  0  0  0
    1.5000   -2.5981    0.0000 C   0  0  0  0  0  0  0  0  0  0  0  0
    3.0000   -2.5981    0.0000 C   0  0  0  0  0  0  0  0  0  0  0  0
    0.7500   -1.2990    0.0000 C   0  0  0  0  0  0  0  0  0  0  0  0
    1.5000    0.0000    0.0000 C   0  0  0  0  0  0  0  0  0  0  0  0
    0.7500    1.2990    0.0000 C   0  0  0  0  0  0  0  0  0  0  0  0
   -0.7500    1.2990    0.0000 C   0  0  0  0  0  0  0  0  0  0  0  0
   -1.5000    0.0000    0.0000 C   0  0  0  0  0  0  0  0  0  0  0  0
   -0.7500   -1.2990    0.0000 C   0  0  0  0  0  0  0  0  0  0  0  0
   -1.5000   -2.5981    0.0000 P   0  0  0  0  0  0  0  0  0  0  0  0
   -2.6491   -3.5623    0.0000 O   0  0  0  0  0  0  0  0  0  0  0  0
   -2.6491   -1.6339    0.0000 O   0  0  0  0  0  0  0  0  0  0  0  0
   -4.0586   -2.1469    0.0000 C   0  0  0  0  0  0  0  0  0  0  0  0
   -5.2077   -1.1827    0.0000 C   0  0  0  0  0  0  0  0  0  0  0  0
   -4.9472    0.2945    0.0000 C   0  0  0  0  0  0  0  0  0  0  0  0
   -6.0963    1.2586    0.0000 O   0  0  0  0  0  0  0  0  0  0  0  0
   -7.5058    0.7456    0.0000 P   0  0  0  0  0  0  0  0  0  0  0  0
   -8.6549    1.7098    0.0000 O   0  0  0  0  0  0  0  0  0  0  0  0
   -7.7663   -0.7316    0.0000 O   0  0  0  0  0  0  0  0  0  0  0  0
   -6.6172   -1.6958    0.0000 C   0  0  0  0  0  0  0  0  0  0  0  0
   -6.3424   -0.2306    0.0000 O   0  0  0  0  0  0  0  0  0  0  0  0
   -6.3711   -0.2065    0.0000 C   0  0  0  0  0  0  0  0  0  0  0  0
   -0.7500   -3.8971    0.0000 O   0  0  0  0  0  0  0  0  0  0  0  0
  1  2  1  0
  2  3  1  0
  3  4  1  0
  4  5  1  0
  5  6  1  0
  6  7  1  0
  4  8  1  0
  8  9  1  0
  9 10  1  0
  4 11  1  0
 11 12  2  0
 12 13  1  0
 13 14  2  0
 14 15  1  0
 15 16  2  0
 15 17  1  0
 17 18  2  0
 18 19  1  0
 19 20  2  0
 20 21  1  0
 21 22  2  0
 22 23  1  0
 23 24  2  0
 23 25  1  0
 25 26  1  0
 26 27  1  0
 27 28  1  0
 28 29  1  0
 29 30  1  0
 30 31  2  0
 30 32  1  0
 32 33  1  0
 30 34  1  0
 34 35  1  0
 23 36  1  0
 16 11  1  0
 22 17  1  0
 33 27  1  0
 36 14  1  0
 35 27  1  0
M  END
>  <Candidate_ID>  (252) 
CAND_R2_252

>  <Candidate_Name>  (252) 
DOPO-PEPA-triethoxysilyl

>  <Parent_Seed_ID>  (252) 
TRAIN_075

>  <Parent_Name>  (252) 
DOPO-PEPA

>  <Transformation_Code>  (252) 
triethoxysilyl

>  <Design_Family>  (252) 
P-Si

>  <Preparation_Type>  (252) 
Additive + Secondary Crosslinking

>  <Synthesis_Level>  (252) 
B

>  <Parent_Tanimoto_r3>  (252) 
0.6097560975609756

>  <Max_Train_Tanimoto_r3>  (252) 
0.6097560975609756

>  <Risk_Flags>  (252) 
DOPO-core substitution route needs confirmation; large structural change from parent; candidate may be outside strict in-domain threshold

$$$$
CAND_R2_253 | DOPO-PEPA-disiloxane
     RDKit          2D

 34 38  0  0  0  0  0  0  0  0999 V2000
    8.7990   -3.3481    0.0000 C   0  0  0  0  0  0  0  0  0  0  0  0
    7.5000   -2.5981    0.0000 Si  0  0  0  0  0  4  0  0  0  0  0  0
    6.2010   -1.8481    0.0000 C   0  0  0  0  0  0  0  0  0  0  0  0
    8.2500   -1.2990    0.0000 C   0  0  0  0  0  0  0  0  0  0  0  0
    6.7500   -3.8971    0.0000 O   0  0  0  0  0  0  0  0  0  0  0  0
    5.2500   -3.8971    0.0000 Si  0  0  0  0  0  4  0  0  0  0  0  0
    5.2500   -2.3971    0.0000 C   0  0  0  0  0  0  0  0  0  0  0  0
    5.2500   -5.3971    0.0000 C   0  0  0  0  0  0  0  0  0  0  0  0
    3.7500   -3.8971    0.0000 C   0  0  0  0  0  0  0  0  0  0  0  0
    3.0000   -5.1962    0.0000 C   0  0  0  0  0  0  0  0  0  0  0  0
    1.5000   -5.1962    0.0000 C   0  0  0  0  0  0  0  0  0  0  0  0
    0.7500   -3.8971    0.0000 C   0  0  0  0  0  0  0  0  0  0  0  0
    1.5000   -2.5981    0.0000 C   0  0  0  0  0  0  0  0  0  0  0  0
    3.0000   -2.5981    0.0000 C   0  0  0  0  0  0  0  0  0  0  0  0
    0.7500   -1.2990    0.0000 C   0  0  0  0  0  0  0  0  0  0  0  0
    1.5000    0.0000    0.0000 C   0  0  0  0  0  0  0  0  0  0  0  0
    0.7500    1.2990    0.0000 C   0  0  0  0  0  0  0  0  0  0  0  0
   -0.7500    1.2990    0.0000 C   0  0  0  0  0  0  0  0  0  0  0  0
   -1.5000    0.0000    0.0000 C   0  0  0  0  0  0  0  0  0  0  0  0
   -0.7500   -1.2990    0.0000 C   0  0  0  0  0  0  0  0  0  0  0  0
   -1.5000   -2.5981    0.0000 P   0  0  0  0  0  0  0  0  0  0  0  0
   -2.6491   -3.5623    0.0000 O   0  0  0  0  0  0  0  0  0  0  0  0
   -2.6491   -1.6339    0.0000 O   0  0  0  0  0  0  0  0  0  0  0  0
   -4.0586   -2.1469    0.0000 C   0  0  0  0  0  0  0  0  0  0  0  0
   -5.2077   -1.1827    0.0000 C   0  0  0  0  0  0  0  0  0  0  0  0
   -4.9472    0.2945    0.0000 C   0  0  0  0  0  0  0  0  0  0  0  0
   -6.0963    1.2586    0.0000 O   0  0  0  0  0  0  0  0  0  0  0  0
   -7.5058    0.7456    0.0000 P   0  0  0  0  0  0  0  0  0  0  0  0
   -8.6549    1.7098    0.0000 O   0  0  0  0  0  0  0  0  0  0  0  0
   -7.7663   -0.7316    0.0000 O   0  0  0  0  0  0  0  0  0  0  0  0
   -6.6172   -1.6958    0.0000 C   0  0  0  0  0  0  0  0  0  0  0  0
   -6.3424   -0.2306    0.0000 O   0  0  0  0  0  0  0  0  0  0  0  0
   -6.3711   -0.2065    0.0000 C   0  0  0  0  0  0  0  0  0  0  0  0
   -0.7500   -3.8971    0.0000 O   0  0  0  0  0  0  0  0  0  0  0  0
  1  2  1  0
  2  3  1  0
  2  4  1  0
  2  5  1  0
  5  6  1  0
  6  7  1  0
  6  8  1  0
  6  9  1  0
  9 10  2  0
 10 11  1  0
 11 12  2  0
 12 13  1  0
 13 14  2  0
 13 15  1  0
 15 16  2  0
 16 17  1  0
 17 18  2  0
 18 19  1  0
 19 20  2  0
 20 21  1  0
 21 22  2  0
 21 23  1  0
 23 24  1  0
 24 25  1  0
 25 26  1  0
 26 27  1  0
 27 28  1  0
 28 29  2  0
 28 30  1  0
 30 31  1  0
 28 32  1  0
 32 33  1  0
 21 34  1  0
 14  9  1  0
 20 15  1  0
 31 25  1  0
 34 12  1  0
 33 25  1  0
M  END
>  <Candidate_ID>  (253) 
CAND_R2_253

>  <Candidate_Name>  (253) 
DOPO-PEPA-disiloxane

>  <Parent_Seed_ID>  (253) 
TRAIN_075

>  <Parent_Name>  (253) 
DOPO-PEPA

>  <Transformation_Code>  (253) 
disiloxane

>  <Design_Family>  (253) 
P-Si

>  <Preparation_Type>  (253) 
Additive

>  <Synthesis_Level>  (253) 
B

>  <Parent_Tanimoto_r3>  (253) 
0.6172839506172839

>  <Max_Train_Tanimoto_r3>  (253) 
0.6172839506172839

>  <Risk_Flags>  (253) 
DOPO-core substitution route needs confirmation; large structural change from parent; candidate may be outside strict in-domain threshold

$$$$
CAND_R2_254 | DOPO-PEPA-glycidyloxy
     RDKit          2D

 31 36  0  0  0  0  0  0  0  0999 V2000
   -8.6549    1.7098    0.0000 O   0  0  0  0  0  0  0  0  0  0  0  0
   -7.5058    0.7456    0.0000 P   0  0  0  0  0  0  0  0  0  0  0  0
   -6.0963    1.2586    0.0000 O   0  0  0  0  0  0  0  0  0  0  0  0
   -4.9472    0.2945    0.0000 C   0  0  0  0  0  0  0  0  0  0  0  0
   -5.2077   -1.1827    0.0000 C   0  0  0  0  0  0  0  0  0  0  0  0
   -4.0586   -2.1469    0.0000 C   0  0  0  0  0  0  0  0  0  0  0  0
   -2.6491   -1.6339    0.0000 O   0  0  0  0  0  0  0  0  0  0  0  0
   -1.5000   -2.5981    0.0000 P   0  0  0  0  0  0  0  0  0  0  0  0
   -2.6491   -3.5623    0.0000 O   0  0  0  0  0  0  0  0  0  0  0  0
   -0.7500   -3.8971    0.0000 O   0  0  0  0  0  0  0  0  0  0  0  0
    0.7500   -3.8971    0.0000 C   0  0  0  0  0  0  0  0  0  0  0  0
    1.5000   -5.1962    0.0000 C   0  0  0  0  0  0  0  0  0  0  0  0
    3.0000   -5.1962    0.0000 C   0  0  0  0  0  0  0  0  0  0  0  0
    3.7500   -3.8971    0.0000 C   0  0  0  0  0  0  0  0  0  0  0  0
    5.2500   -3.8971    0.0000 O   0  0  0  0  0  0  0  0  0  0  0  0
    6.0000   -5.1962    0.0000 C   0  0  0  0  0  0  0  0  0  0  0  0
    7.5000   -5.1962    0.0000 C   0  0  0  0  0  0  0  0  0  0  0  0
    8.7990   -4.4462    0.0000 C   0  0  0  0  0  0  0  0  0  0  0  0
    8.7990   -5.9462    0.0000 O   0  0  0  0  0  0  0  0  0  0  0  0
    3.0000   -2.5981    0.0000 C   0  0  0  0  0  0  0  0  0  0  0  0
    1.5000   -2.5981    0.0000 C   0  0  0  0  0  0  0  0  0  0  0  0
    0.7500   -1.2990    0.0000 C   0  0  0  0  0  0  0  0  0  0  0  0
    1.5000    0.0000    0.0000 C   0  0  0  0  0  0  0  0  0  0  0  0
    0.7500    1.2990    0.0000 C   0  0  0  0  0  0  0  0  0  0  0  0
   -0.7500    1.2990    0.0000 C   0  0  0  0  0  0  0  0  0  0  0  0
   -1.5000    0.0000    0.0000 C   0  0  0  0  0  0  0  0  0  0  0  0
   -0.7500   -1.2990    0.0000 C   0  0  0  0  0  0  0  0  0  0  0  0
   -6.6172   -1.6958    0.0000 C   0  0  0  0  0  0  0  0  0  0  0  0
   -7.7663   -0.7316    0.0000 O   0  0  0  0  0  0  0  0  0  0  0  0
   -6.3711   -0.2065    0.0000 C   0  0  0  0  0  0  0  0  0  0  0  0
   -6.3424   -0.2306    0.0000 O   0  0  0  0  0  0  0  0  0  0  0  0
  1  2  2  0
  2  3  1  0
  3  4  1  0
  4  5  1  0
  5  6  1  0
  6  7  1  0
  7  8  1  0
  8  9  2  0
  8 10  1  0
 10 11  1  0
 11 12  2  0
 12 13  1  0
 13 14  2  0
 14 15  1  0
 15 16  1  0
 16 17  1  0
 17 18  1  0
 18 19  1  0
 14 20  1  0
 20 21  2  0
 21 22  1  0
 22 23  2  0
 23 24  1  0
 24 25  2  0
 25 26  1  0
 26 27  2  0
  5 28  1  0
 28 29  1  0
  5 30  1  0
 30 31  1  0
 29  2  1  0
 31  2  1  0
 27  8  1  0
 21 11  1  0
 27 22  1  0
 19 17  1  0
M  END
>  <Candidate_ID>  (254) 
CAND_R2_254

>  <Candidate_Name>  (254) 
DOPO-PEPA-glycidyloxy

>  <Parent_Seed_ID>  (254) 
TRAIN_075

>  <Parent_Name>  (254) 
DOPO-PEPA

>  <Transformation_Code>  (254) 
glycidyloxy

>  <Design_Family>  (254) 
P-only

>  <Preparation_Type>  (254) 
Co-curing

>  <Synthesis_Level>  (254) 
B

>  <Parent_Tanimoto_r3>  (254) 
0.5952380952380952

>  <Max_Train_Tanimoto_r3>  (254) 
0.5952380952380952

>  <Risk_Flags>  (254) 
DOPO-core substitution route needs confirmation; large structural change from parent; candidate may be outside strict in-domain threshold

$$$$
CAND_R2_255 | DOPO-PEPA-diaminotriazine
     RDKit          2D

 34 39  0  0  0  0  0  0  0  0999 V2000
    8.2500   -1.2990    0.0000 N   0  0  0  0  0  0  0  0  0  0  0  0
    7.5000   -2.5981    0.0000 C   0  0  0  0  0  0  0  0  0  0  0  0
    8.2500   -3.8971    0.0000 N   0  0  0  0  0  0  0  0  0  0  0  0
    7.5000   -5.1962    0.0000 C   0  0  0  0  0  0  0  0  0  0  0  0
    8.2500   -6.4952    0.0000 N   0  0  0  0  0  0  0  0  0  0  0  0
    6.0000   -5.1962    0.0000 N   0  0  0  0  0  0  0  0  0  0  0  0
    5.2500   -3.8971    0.0000 C   0  0  0  0  0  0  0  0  0  0  0  0
    3.7500   -3.8971    0.0000 C   0  0  0  0  0  0  0  0  0  0  0  0
    3.0000   -5.1962    0.0000 C   0  0  0  0  0  0  0  0  0  0  0  0
    1.5000   -5.1962    0.0000 C   0  0  0  0  0  0  0  0  0  0  0  0
    0.7500   -3.8971    0.0000 C   0  0  0  0  0  0  0  0  0  0  0  0
    1.5000   -2.5981    0.0000 C   0  0  0  0  0  0  0  0  0  0  0  0
    3.0000   -2.5981    0.0000 C   0  0  0  0  0  0  0  0  0  0  0  0
    0.7500   -1.2990    0.0000 C   0  0  0  0  0  0  0  0  0  0  0  0
    1.5000    0.0000    0.0000 C   0  0  0  0  0  0  0  0  0  0  0  0
    0.7500    1.2990    0.0000 C   0  0  0  0  0  0  0  0  0  0  0  0
   -0.7500    1.2990    0.0000 C   0  0  0  0  0  0  0  0  0  0  0  0
   -1.5000    0.0000    0.0000 C   0  0  0  0  0  0  0  0  0  0  0  0
   -0.7500   -1.2990    0.0000 C   0  0  0  0  0  0  0  0  0  0  0  0
   -1.5000   -2.5981    0.0000 P   0  0  0  0  0  0  0  0  0  0  0  0
   -2.6491   -3.5623    0.0000 O   0  0  0  0  0  0  0  0  0  0  0  0
   -2.6491   -1.6339    0.0000 O   0  0  0  0  0  0  0  0  0  0  0  0
   -4.0586   -2.1469    0.0000 C   0  0  0  0  0  0  0  0  0  0  0  0
   -5.2077   -1.1827    0.0000 C   0  0  0  0  0  0  0  0  0  0  0  0
   -4.9472    0.2945    0.0000 C   0  0  0  0  0  0  0  0  0  0  0  0
   -6.0963    1.2586    0.0000 O   0  0  0  0  0  0  0  0  0  0  0  0
   -7.5058    0.7456    0.0000 P   0  0  0  0  0  0  0  0  0  0  0  0
   -8.6549    1.7098    0.0000 O   0  0  0  0  0  0  0  0  0  0  0  0
   -7.7663   -0.7316    0.0000 O   0  0  0  0  0  0  0  0  0  0  0  0
   -6.6172   -1.6958    0.0000 C   0  0  0  0  0  0  0  0  0  0  0  0
   -6.3424   -0.2306    0.0000 O   0  0  0  0  0  0  0  0  0  0  0  0
   -6.3711   -0.2065    0.0000 C   0  0  0  0  0  0  0  0  0  0  0  0
   -0.7500   -3.8971    0.0000 O   0  0  0  0  0  0  0  0  0  0  0  0
    6.0000   -2.5981    0.0000 N   0  0  0  0  0  0  0  0  0  0  0  0
  1  2  1  0
  2  3  2  0
  3  4  1  0
  4  5  1  0
  4  6  2  0
  6  7  1  0
  7  8  1  0
  8  9  2  0
  9 10  1  0
 10 11  2  0
 11 12  1  0
 12 13  2  0
 12 14  1  0
 14 15  2  0
 15 16  1  0
 16 17  2  0
 17 18  1  0
 18 19  2  0
 19 20  1  0
 20 21  2  0
 20 22  1  0
 22 23  1  0
 23 24  1  0
 24 25  1  0
 25 26  1  0
 26 27  1  0
 27 28  2  0
 27 29  1  0
 29 30  1  0
 27 31  1  0
 31 32  1  0
 20 33  1  0
  7 34  2  0
 34  2  1  0
 13  8  1  0
 19 14  1  0
 30 24  1  0
 33 11  1  0
 32 24  1  0
M  END
>  <Candidate_ID>  (255) 
CAND_R2_255

>  <Candidate_Name>  (255) 
DOPO-PEPA-diaminotriazine

>  <Parent_Seed_ID>  (255) 
TRAIN_075

>  <Parent_Name>  (255) 
DOPO-PEPA

>  <Transformation_Code>  (255) 
diaminotriazine

>  <Design_Family>  (255) 
P-N

>  <Preparation_Type>  (255) 
Co-curing

>  <Synthesis_Level>  (255) 
B

>  <Parent_Tanimoto_r3>  (255) 
0.5882352941176471

>  <Max_Train_Tanimoto_r3>  (255) 
0.5882352941176471

>  <Risk_Flags>  (255) 
DOPO-core substitution route needs confirmation; large structural change from parent; candidate may be outside strict in-domain threshold

$$$$
CAND_R2_256 | DOPO-PEPA-piperazine
     RDKit          2D

 32 37  0  0  0  0  0  0  0  0999 V2000
   -8.6549    1.7098    0.0000 O   0  0  0  0  0  0  0  0  0  0  0  0
   -7.5058    0.7456    0.0000 P   0  0  0  0  0  0  0  0  0  0  0  0
   -6.0963    1.2586    0.0000 O   0  0  0  0  0  0  0  0  0  0  0  0
   -4.9472    0.2945    0.0000 C   0  0  0  0  0  0  0  0  0  0  0  0
   -5.2077   -1.1827    0.0000 C   0  0  0  0  0  0  0  0  0  0  0  0
   -4.0586   -2.1469    0.0000 C   0  0  0  0  0  0  0  0  0  0  0  0
   -2.6491   -1.6339    0.0000 O   0  0  0  0  0  0  0  0  0  0  0  0
   -1.5000   -2.5981    0.0000 P   0  0  0  0  0  0  0  0  0  0  0  0
   -2.6491   -3.5623    0.0000 O   0  0  0  0  0  0  0  0  0  0  0  0
   -0.7500   -3.8971    0.0000 O   0  0  0  0  0  0  0  0  0  0  0  0
    0.7500   -3.8971    0.0000 C   0  0  0  0  0  0  0  0  0  0  0  0
    1.5000   -5.1962    0.0000 C   0  0  0  0  0  0  0  0  0  0  0  0
    3.0000   -5.1962    0.0000 C   0  0  0  0  0  0  0  0  0  0  0  0
    3.7500   -3.8971    0.0000 C   0  0  0  0  0  0  0  0  0  0  0  0
    5.2500   -3.8971    0.0000 N   0  0  0  0  0  0  0  0  0  0  0  0
    6.0000   -5.1962    0.0000 C   0  0  0  0  0  0  0  0  0  0  0  0
    7.5000   -5.1962    0.0000 C   0  0  0  0  0  0  0  0  0  0  0  0
    8.2500   -3.8971    0.0000 N   0  0  0  0  0  0  0  0  0  0  0  0
    7.5000   -2.5981    0.0000 C   0  0  0  0  0  0  0  0  0  0  0  0
    6.0000   -2.5981    0.0000 C   0  0  0  0  0  0  0  0  0  0  0  0
    3.0000   -2.5981    0.0000 C   0  0  0  0  0  0  0  0  0  0  0  0
    1.5000   -2.5981    0.0000 C   0  0  0  0  0  0  0  0  0  0  0  0
    0.7500   -1.2990    0.0000 C   0  0  0  0  0  0  0  0  0  0  0  0
    1.5000    0.0000    0.0000 C   0  0  0  0  0  0  0  0  0  0  0  0
    0.7500    1.2990    0.0000 C   0  0  0  0  0  0  0  0  0  0  0  0
   -0.7500    1.2990    0.0000 C   0  0  0  0  0  0  0  0  0  0  0  0
   -1.5000    0.0000    0.0000 C   0  0  0  0  0  0  0  0  0  0  0  0
   -0.7500   -1.2990    0.0000 C   0  0  0  0  0  0  0  0  0  0  0  0
   -6.6172   -1.6958    0.0000 C   0  0  0  0  0  0  0  0  0  0  0  0
   -7.7663   -0.7316    0.0000 O   0  0  0  0  0  0  0  0  0  0  0  0
   -6.3711   -0.2065    0.0000 C   0  0  0  0  0  0  0  0  0  0  0  0
   -6.3424   -0.2306    0.0000 O   0  0  0  0  0  0  0  0  0  0  0  0
  1  2  2  0
  2  3  1  0
  3  4  1  0
  4  5  1  0
  5  6  1  0
  6  7  1  0
  7  8  1  0
  8  9  2  0
  8 10  1  0
 10 11  1  0
 11 12  2  0
 12 13  1  0
 13 14  2  0
 14 15  1  0
 15 16  1  0
 16 17  1  0
 17 18  1  0
 18 19  1  0
 19 20  1  0
 14 21  1  0
 21 22  2  0
 22 23  1  0
 23 24  2  0
 24 25  1  0
 25 26  2  0
 26 27  1  0
 27 28  2  0
  5 29  1  0
 29 30  1  0
  5 31  1  0
 31 32  1  0
 30  2  1  0
 32  2  1  0
 28  8  1  0
 22 11  1  0
 28 23  1  0
 20 15  1  0
M  END
>  <Candidate_ID>  (256) 
CAND_R2_256

>  <Candidate_Name>  (256) 
DOPO-PEPA-piperazine

>  <Parent_Seed_ID>  (256) 
TRAIN_075

>  <Parent_Name>  (256) 
DOPO-PEPA

>  <Transformation_Code>  (256) 
piperazine

>  <Design_Family>  (256) 
P-N

>  <Preparation_Type>  (256) 
Co-curing

>  <Synthesis_Level>  (256) 
B

>  <Parent_Tanimoto_r3>  (256) 
0.5882352941176471

>  <Max_Train_Tanimoto_r3>  (256) 
0.5882352941176471

>  <Risk_Flags>  (256) 
DOPO-core substitution route needs confirmation; large structural change from parent; candidate may be outside strict in-domain threshold

$$$$
CAND_R2_257 | DOPO-PEPA-benzamide-linker
     RDKit          2D

 35 40  0  0  0  0  0  0  0  0999 V2000
    5.2500   -6.4952    0.0000 O   0  0  0  0  0  0  0  0  0  0  0  0
    6.0000   -5.1962    0.0000 C   0  0  0  0  0  0  0  0  0  0  0  0
    5.2500   -3.8971    0.0000 N   0  0  0  0  0  0  0  0  0  0  0  0
    3.7500   -3.8971    0.0000 C   0  0  0  0  0  0  0  0  0  0  0  0
    3.0000   -5.1962    0.0000 C   0  0  0  0  0  0  0  0  0  0  0  0
    1.5000   -5.1962    0.0000 C   0  0  0  0  0  0  0  0  0  0  0  0
    0.7500   -3.8971    0.0000 C   0  0  0  0  0  0  0  0  0  0  0  0
    1.5000   -2.5981    0.0000 C   0  0  0  0  0  0  0  0  0  0  0  0
    3.0000   -2.5981    0.0000 C   0  0  0  0  0  0  0  0  0  0  0  0
    0.7500   -1.2990    0.0000 C   0  0  0  0  0  0  0  0  0  0  0  0
    1.5000    0.0000    0.0000 C   0  0  0  0  0  0  0  0  0  0  0  0
    0.7500    1.2990    0.0000 C   0  0  0  0  0  0  0  0  0  0  0  0
   -0.7500    1.2990    0.0000 C   0  0  0  0  0  0  0  0  0  0  0  0
   -1.5000    0.0000    0.0000 C   0  0  0  0  0  0  0  0  0  0  0  0
   -0.7500   -1.2990    0.0000 C   0  0  0  0  0  0  0  0  0  0  0  0
   -1.5000   -2.5981    0.0000 P   0  0  0  0  0  0  0  0  0  0  0  0
   -2.6491   -3.5623    0.0000 O   0  0  0  0  0  0  0  0  0  0  0  0
   -2.6491   -1.6339    0.0000 O   0  0  0  0  0  0  0  0  0  0  0  0
   -4.0586   -2.1469    0.0000 C   0  0  0  0  0  0  0  0  0  0  0  0
   -5.2077   -1.1827    0.0000 C   0  0  0  0  0  0  0  0  0  0  0  0
   -4.9472    0.2945    0.0000 C   0  0  0  0  0  0  0  0  0  0  0  0
   -6.0963    1.2586    0.0000 O   0  0  0  0  0  0  0  0  0  0  0  0
   -7.5058    0.7456    0.0000 P   0  0  0  0  0  0  0  0  0  0  0  0
   -8.6549    1.7098    0.0000 O   0  0  0  0  0  0  0  0  0  0  0  0
   -7.7663   -0.7316    0.0000 O   0  0  0  0  0  0  0  0  0  0  0  0
   -6.6172   -1.6958    0.0000 C   0  0  0  0  0  0  0  0  0  0  0  0
   -6.3424   -0.2306    0.0000 O   0  0  0  0  0  0  0  0  0  0  0  0
   -6.3711   -0.2065    0.0000 C   0  0  0  0  0  0  0  0  0  0  0  0
   -0.7500   -3.8971    0.0000 O   0  0  0  0  0  0  0  0  0  0  0  0
    7.5000   -5.1962    0.0000 C   0  0  0  0  0  0  0  0  0  0  0  0
    8.2500   -6.4952    0.0000 C   0  0  0  0  0  0  0  0  0  0  0  0
    9.7500   -6.4952    0.0000 C   0  0  0  0  0  0  0  0  0  0  0  0
   10.5000   -5.1962    0.0000 C   0  0  0  0  0  0  0  0  0  0  0  0
    9.7500   -3.8971    0.0000 C   0  0  0  0  0  0  0  0  0  0  0  0
    8.2500   -3.8971    0.0000 C   0  0  0  0  0  0  0  0  0  0  0  0
  1  2  2  0
  2  3  1  0
  3  4  1  0
  4  5  2  0
  5  6  1  0
  6  7  2  0
  7  8  1  0
  8  9  2  0
  8 10  1  0
 10 11  2  0
 11 12  1  0
 12 13  2  0
 13 14  1  0
 14 15  2  0
 15 16  1  0
 16 17  2  0
 16 18  1  0
 18 19  1  0
 19 20  1  0
 20 21  1  0
 21 22  1  0
 22 23  1  0
 23 24  2  0
 23 25  1  0
 25 26  1  0
 23 27  1  0
 27 28  1  0
 16 29  1  0
  2 30  1  0
 30 31  2  0
 31 32  1  0
 32 33  2  0
 33 34  1  0
 34 35  2  0
  9  4  1  0
 15 10  1  0
 26 20  1  0
 35 30  1  0
 29  7  1  0
 28 20  1  0
M  END
>  <Candidate_ID>  (257) 
CAND_R2_257

>  <Candidate_Name>  (257) 
DOPO-PEPA-benzamide-linker

>  <Parent_Seed_ID>  (257) 
TRAIN_075

>  <Parent_Name>  (257) 
DOPO-PEPA

>  <Transformation_Code>  (257) 
benzamide_linker

>  <Design_Family>  (257) 
P-N

>  <Preparation_Type>  (257) 
Additive

>  <Synthesis_Level>  (257) 
B

>  <Parent_Tanimoto_r3>  (257) 
0.5747126436781609

>  <Max_Train_Tanimoto_r3>  (257) 
0.5747126436781609

>  <Risk_Flags>  (257) 
DOPO-core substitution route needs confirmation; large structural change from parent; candidate may be outside strict in-domain threshold

$$$$
CAND_R2_258 | DOPO-PEPA-phenyl
     RDKit          2D

 32 37  0  0  0  0  0  0  0  0999 V2000
   -8.6549    1.7098    0.0000 O   0  0  0  0  0  0  0  0  0  0  0  0
   -7.5058    0.7456    0.0000 P   0  0  0  0  0  0  0  0  0  0  0  0
   -6.0963    1.2586    0.0000 O   0  0  0  0  0  0  0  0  0  0  0  0
   -4.9472    0.2945    0.0000 C   0  0  0  0  0  0  0  0  0  0  0  0
   -5.2077   -1.1827    0.0000 C   0  0  0  0  0  0  0  0  0  0  0  0
   -4.0586   -2.1469    0.0000 C   0  0  0  0  0  0  0  0  0  0  0  0
   -2.6491   -1.6339    0.0000 O   0  0  0  0  0  0  0  0  0  0  0  0
   -1.5000   -2.5981    0.0000 P   0  0  0  0  0  0  0  0  0  0  0  0
   -2.6491   -3.5623    0.0000 O   0  0  0  0  0  0  0  0  0  0  0  0
   -0.7500   -3.8971    0.0000 O   0  0  0  0  0  0  0  0  0  0  0  0
    0.7500   -3.8971    0.0000 C   0  0  0  0  0  0  0  0  0  0  0  0
    1.5000   -5.1962    0.0000 C   0  0  0  0  0  0  0  0  0  0  0  0
    3.0000   -5.1962    0.0000 C   0  0  0  0  0  0  0  0  0  0  0  0
    3.7500   -3.8971    0.0000 C   0  0  0  0  0  0  0  0  0  0  0  0
    5.2500   -3.8971    0.0000 C   0  0  0  0  0  0  0  0  0  0  0  0
    6.0000   -5.1962    0.0000 C   0  0  0  0  0  0  0  0  0  0  0  0
    7.5000   -5.1962    0.0000 C   0  0  0  0  0  0  0  0  0  0  0  0
    8.2500   -3.8971    0.0000 C   0  0  0  0  0  0  0  0  0  0  0  0
    7.5000   -2.5981    0.0000 C   0  0  0  0  0  0  0  0  0  0  0  0
    6.0000   -2.5981    0.0000 C   0  0  0  0  0  0  0  0  0  0  0  0
    3.0000   -2.5981    0.0000 C   0  0  0  0  0  0  0  0  0  0  0  0
    1.5000   -2.5981    0.0000 C   0  0  0  0  0  0  0  0  0  0  0  0
    0.7500   -1.2990    0.0000 C   0  0  0  0  0  0  0  0  0  0  0  0
    1.5000    0.0000    0.0000 C   0  0  0  0  0  0  0  0  0  0  0  0
    0.7500    1.2990    0.0000 C   0  0  0  0  0  0  0  0  0  0  0  0
   -0.7500    1.2990    0.0000 C   0  0  0  0  0  0  0  0  0  0  0  0
   -1.5000    0.0000    0.0000 C   0  0  0  0  0  0  0  0  0  0  0  0
   -0.7500   -1.2990    0.0000 C   0  0  0  0  0  0  0  0  0  0  0  0
   -6.6172   -1.6958    0.0000 C   0  0  0  0  0  0  0  0  0  0  0  0
   -7.7663   -0.7316    0.0000 O   0  0  0  0  0  0  0  0  0  0  0  0
   -6.3711   -0.2065    0.0000 C   0  0  0  0  0  0  0  0  0  0  0  0
   -6.3424   -0.2306    0.0000 O   0  0  0  0  0  0  0  0  0  0  0  0
  1  2  2  0
  2  3  1  0
  3  4  1  0
  4  5  1  0
  5  6  1  0
  6  7  1  0
  7  8  1  0
  8  9  2  0
  8 10  1  0
 10 11  1  0
 11 12  2  0
 12 13  1  0
 13 14  2  0
 14 15  1  0
 15 16  2  0
 16 17  1  0
 17 18  2  0
 18 19  1  0
 19 20  2  0
 14 21  1  0
 21 22  2  0
 22 23  1  0
 23 24  2  0
 24 25  1  0
 25 26  2  0
 26 27  1  0
 27 28  2  0
  5 29  1  0
 29 30  1  0
  5 31  1  0
 31 32  1  0
 30  2  1  0
 32  2  1  0
 28  8  1  0
 22 11  1  0
 28 23  1  0
 20 15  1  0
M  END
>  <Candidate_ID>  (258) 
CAND_R2_258

>  <Candidate_Name>  (258) 
DOPO-PEPA-phenyl

>  <Parent_Seed_ID>  (258) 
TRAIN_075

>  <Parent_Name>  (258) 
DOPO-PEPA

>  <Transformation_Code>  (258) 
phenyl

>  <Design_Family>  (258) 
P-only

>  <Preparation_Type>  (258) 
Additive

>  <Synthesis_Level>  (258) 
B

>  <Parent_Tanimoto_r3>  (258) 
0.6410256410256411

>  <Max_Train_Tanimoto_r3>  (258) 
0.6410256410256411

>  <Risk_Flags>  (258) 
DOPO-core substitution route needs confirmation; large structural change from parent; candidate may be outside strict in-domain threshold

$$$$
CAND_R2_259 | DOPO-PEPA-biphenyl
     RDKit          2D

 38 44  0  0  0  0  0  0  0  0999 V2000
   -8.6549    1.7098    0.0000 O   0  0  0  0  0  0  0  0  0  0  0  0
   -7.5058    0.7456    0.0000 P   0  0  0  0  0  0  0  0  0  0  0  0
   -6.0963    1.2586    0.0000 O   0  0  0  0  0  0  0  0  0  0  0  0
   -4.9472    0.2945    0.0000 C   0  0  0  0  0  0  0  0  0  0  0  0
   -5.2077   -1.1827    0.0000 C   0  0  0  0  0  0  0  0  0  0  0  0
   -4.0586   -2.1469    0.0000 C   0  0  0  0  0  0  0  0  0  0  0  0
   -2.6491   -1.6339    0.0000 O   0  0  0  0  0  0  0  0  0  0  0  0
   -1.5000   -2.5981    0.0000 P   0  0  0  0  0  0  0  0  0  0  0  0
   -2.6491   -3.5623    0.0000 O   0  0  0  0  0  0  0  0  0  0  0  0
   -0.7500   -3.8971    0.0000 O   0  0  0  0  0  0  0  0  0  0  0  0
    0.7500   -3.8971    0.0000 C   0  0  0  0  0  0  0  0  0  0  0  0
    1.5000   -5.1962    0.0000 C   0  0  0  0  0  0  0  0  0  0  0  0
    3.0000   -5.1962    0.0000 C   0  0  0  0  0  0  0  0  0  0  0  0
    3.7500   -3.8971    0.0000 C   0  0  0  0  0  0  0  0  0  0  0  0
    5.2500   -3.8971    0.0000 C   0  0  0  0  0  0  0  0  0  0  0  0
    6.0000   -5.1962    0.0000 C   0  0  0  0  0  0  0  0  0  0  0  0
    7.5000   -5.1962    0.0000 C   0  0  0  0  0  0  0  0  0  0  0  0
    8.2500   -3.8971    0.0000 C   0  0  0  0  0  0  0  0  0  0  0  0
    9.7500   -3.8971    0.0000 C   0  0  0  0  0  0  0  0  0  0  0  0
   10.5000   -5.1962    0.0000 C   0  0  0  0  0  0  0  0  0  0  0  0
   12.0000   -5.1962    0.0000 C   0  0  0  0  0  0  0  0  0  0  0  0
   12.7500   -3.8971    0.0000 C   0  0  0  0  0  0  0  0  0  0  0  0
   12.0000   -2.5981    0.0000 C   0  0  0  0  0  0  0  0  0  0  0  0
   10.5000   -2.5981    0.0000 C   0  0  0  0  0  0  0  0  0  0  0  0
    7.5000   -2.5981    0.0000 C   0  0  0  0  0  0  0  0  0  0  0  0
    6.0000   -2.5981    0.0000 C   0  0  0  0  0  0  0  0  0  0  0  0
    3.0000   -2.5981    0.0000 C   0  0  0  0  0  0  0  0  0  0  0  0
    1.5000   -2.5981    0.0000 C   0  0  0  0  0  0  0  0  0  0  0  0
    0.7500   -1.2990    0.0000 C   0  0  0  0  0  0  0  0  0  0  0  0
    1.5000    0.0000    0.0000 C   0  0  0  0  0  0  0  0  0  0  0  0
    0.7500    1.2990    0.0000 C   0  0  0  0  0  0  0  0  0  0  0  0
   -0.7500    1.2990    0.0000 C   0  0  0  0  0  0  0  0  0  0  0  0
   -1.5000    0.0000    0.0000 C   0  0  0  0  0  0  0  0  0  0  0  0
   -0.7500   -1.2990    0.0000 C   0  0  0  0  0  0  0  0  0  0  0  0
   -6.6172   -1.6958    0.0000 C   0  0  0  0  0  0  0  0  0  0  0  0
   -7.7663   -0.7316    0.0000 O   0  0  0  0  0  0  0  0  0  0  0  0
   -6.3711   -0.2065    0.0000 C   0  0  0  0  0  0  0  0  0  0  0  0
   -6.3424   -0.2306    0.0000 O   0  0  0  0  0  0  0  0  0  0  0  0
  1  2  2  0
  2  3  1  0
  3  4  1  0
  4  5  1  0
  5  6  1  0
  6  7  1  0
  7  8  1  0
  8  9  2  0
  8 10  1  0
 10 11  1  0
 11 12  2  0
 12 13  1  0
 13 14  2  0
 14 15  1  0
 15 16  2  0
 16 17  1  0
 17 18  2  0
 18 19  1  0
 19 20  2  0
 20 21  1  0
 21 22  2  0
 22 23  1  0
 23 24  2  0
 18 25  1  0
 25 26  2  0
 14 27  1  0
 27 28  2  0
 28 29  1  0
 29 30  2  0
 30 31  1  0
 31 32  2  0
 32 33  1  0
 33 34  2  0
  5 35  1  0
 35 36  1  0
  5 37  1  0
 37 38  1  0
 36  2  1  0
 38  2  1  0
 34  8  1  0
 28 11  1  0
 34 29  1  0
 26 15  1  0
 24 19  1  0
M  END
>  <Candidate_ID>  (259) 
CAND_R2_259

>  <Candidate_Name>  (259) 
DOPO-PEPA-biphenyl

>  <Parent_Seed_ID>  (259) 
TRAIN_075

>  <Parent_Name>  (259) 
DOPO-PEPA

>  <Transformation_Code>  (259) 
biphenyl

>  <Design_Family>  (259) 
P-only

>  <Preparation_Type>  (259) 
Additive

>  <Synthesis_Level>  (259) 
B

>  <Parent_Tanimoto_r3>  (259) 
0.6172839506172839

>  <Max_Train_Tanimoto_r3>  (259) 
0.6172839506172839

>  <Risk_Flags>  (259) 
DOPO-core substitution route needs confirmation; large structural change from parent; candidate may be outside strict in-domain threshold

$$$$
CAND_R2_260 | TDCA-DOPO-3-amino
     RDKit          2D

 73 83  0  0  0  0  0  0  0  0999 V2000
   -2.0230  -18.0943    0.0000 N   0  0  0  0  0  0  0  0  0  0  0  0
   -0.8739  -17.1301    0.0000 C   0  0  0  0  0  0  0  0  0  0  0  0
   -1.1344  -15.6529    0.0000 C   0  0  0  0  0  0  0  0  0  0  0  0
    0.0147  -14.6887    0.0000 C   0  0  0  0  0  0  0  0  0  0  0  0
    1.4242  -15.2018    0.0000 C   0  0  0  0  0  0  0  0  0  0  0  0
    2.5733  -14.2376    0.0000 O   0  0  0  0  0  0  0  0  0  0  0  0
    2.3128  -12.7604    0.0000 P   0  0  0  0  0  0  0  0  0  0  0  0
    0.8356  -13.0209    0.0000 O   0  0  0  0  0  0  0  0  0  0  0  0
    3.7900  -12.4999    0.0000 O   0  0  0  0  0  0  0  0  0  0  0  0
    4.7542  -13.6490    0.0000 C   0  0  0  0  0  0  0  0  0  0  0  0
    4.2412  -15.0585    0.0000 C   0  0  0  0  0  0  0  0  0  0  0  0
    5.2054  -16.2076    0.0000 C   0  0  0  0  0  0  0  0  0  0  0  0
    6.6826  -15.9471    0.0000 C   0  0  0  0  0  0  0  0  0  0  0  0
    7.1956  -14.5376    0.0000 C   0  0  0  0  0  0  0  0  0  0  0  0
    6.2314  -13.3885    0.0000 C   0  0  0  0  0  0  0  0  0  0  0  0
    2.0524  -11.2832    0.0000 O   0  0  0  0  0  0  0  0  0  0  0  0
    3.2014  -10.3190    0.0000 C   0  0  0  0  0  0  0  0  0  0  0  0
    2.9410   -8.8418    0.0000 C   0  0  0  0  0  0  0  0  0  0  0  0
    4.0900   -7.8776    0.0000 C   0  0  0  0  0  0  0  0  0  0  0  0
    3.8296   -6.4004    0.0000 C   0  0  0  0  0  0  0  0  0  0  0  0
    2.4200   -5.8874    0.0000 C   0  0  0  0  0  0  0  0  0  0  0  0
    2.1595   -4.4101    0.0000 C   0  0  0  0  0  0  0  0  0  0  0  0
    3.3086   -3.4460    0.0000 O   0  0  0  0  0  0  0  0  0  0  0  0
    4.7181   -3.9590    0.0000 P   0  0  0  0  0  0  0  0  0  0  0  0
    4.2051   -5.3685    0.0000 O   0  0  0  0  0  0  0  0  0  0  0  0
    5.2312   -2.5495    0.0000 O   0  0  0  0  0  0  0  0  0  0  0  0
    4.2670   -1.4004    0.0000 C   0  0  0  0  0  0  0  0  0  0  0  0
    2.7898   -1.6609    0.0000 C   0  0  0  0  0  0  0  0  0  0  0  0
    1.8256   -0.5118    0.0000 C   0  0  0  0  0  0  0  0  0  0  0  0
    2.3386    0.8977    0.0000 C   0  0  0  0  0  0  0  0  0  0  0  0
    3.8158    1.1582    0.0000 C   0  0  0  0  0  0  0  0  0  0  0  0
    4.7800    0.0092    0.0000 C   0  0  0  0  0  0  0  0  0  0  0  0
    6.1277   -4.4720    0.0000 O   0  0  0  0  0  0  0  0  0  0  0  0
    7.2768   -3.5078    0.0000 C   0  0  0  0  0  0  0  0  0  0  0  0
    7.0163   -2.0306    0.0000 C   0  0  0  0  0  0  0  0  0  0  0  0
    8.1653   -1.0664    0.0000 C   0  0  0  0  0  0  0  0  0  0  0  0
    9.5749   -1.5795    0.0000 C   0  0  0  0  0  0  0  0  0  0  0  0
    9.8354   -3.0567    0.0000 C   0  0  0  0  0  0  0  0  0  0  0  0
    8.6863   -4.0209    0.0000 C   0  0  0  0  0  0  0  0  0  0  0  0
    0.7500   -3.8971    0.0000 P   0  0  0  0  0  0  0  0  0  0  0  0
    1.5000   -2.5981    0.0000 O   0  0  0  0  0  0  0  0  0  0  0  0
    0.4895   -5.3743    0.0000 O   0  0  0  0  0  0  0  0  0  0  0  0
   -0.9200   -5.8874    0.0000 C   0  0  0  0  0  0  0  0  0  0  0  0
   -1.1805   -7.3646    0.0000 C   0  0  0  0  0  0  0  0  0  0  0  0
   -2.5900   -7.8776    0.0000 C   0  0  0  0  0  0  0  0  0  0  0  0
   -3.7391   -6.9134    0.0000 C   0  0  0  0  0  0  0  0  0  0  0  0
   -3.4786   -5.4362    0.0000 C   0  0  0  0  0  0  0  0  0  0  0  0
   -2.0691   -4.9232    0.0000 C   0  0  0  0  0  0  0  0  0  0  0  0
   -1.8086   -3.4460    0.0000 C   0  0  0  0  0  0  0  0  0  0  0  0
   -2.9577   -2.4818    0.0000 C   0  0  0  0  0  0  0  0  0  0  0  0
   -2.6972   -1.0046    0.0000 C   0  0  0  0  0  0  0  0  0  0  0  0
   -1.2877   -0.4915    0.0000 C   0  0  0  0  0  0  0  0  0  0  0  0
   -0.1386   -1.4557    0.0000 C   0  0  0  0  0  0  0  0  0  0  0  0
   -0.3991   -2.9329    0.0000 C   0  0  0  0  0  0  0  0  0  0  0  0
    1.2709   -6.8515    0.0000 C   0  0  0  0  0  0  0  0  0  0  0  0
    1.5314   -8.3287    0.0000 C   0  0  0  0  0  0  0  0  0  0  0  0
    4.6110  -10.8320    0.0000 P   0  0  0  0  0  0  0  0  0  0  0  0
    4.3913  -11.5983    0.0000 O   0  0  0  0  0  0  0  0  0  0  0  0
    4.8714   -9.3548    0.0000 O   0  0  0  0  0  0  0  0  0  0  0  0
    6.2810   -8.8418    0.0000 C   0  0  0  0  0  0  0  0  0  0  0  0
    6.5415   -7.3646    0.0000 C   0  0  0  0  0  0  0  0  0  0  0  0
    7.9510   -6.8515    0.0000 C   0  0  0  0  0  0  0  0  0  0  0  0
    9.1001   -7.8157    0.0000 C   0  0  0  0  0  0  0  0  0  0  0  0
    8.8396   -9.2929    0.0000 C   0  0  0  0  0  0  0  0  0  0  0  0
    7.4300   -9.8060    0.0000 C   0  0  0  0  0  0  0  0  0  0  0  0
    7.1696  -11.2832    0.0000 C   0  0  0  0  0  0  0  0  0  0  0  0
    8.3186  -12.2474    0.0000 C   0  0  0  0  0  0  0  0  0  0  0  0
    8.0582  -13.7246    0.0000 C   0  0  0  0  0  0  0  0  0  0  0  0
    6.6486  -14.2376    0.0000 C   0  0  0  0  0  0  0  0  0  0  0  0
    5.4996  -13.2734    0.0000 C   0  0  0  0  0  0  0  0  0  0  0  0
    5.7600  -11.7962    0.0000 C   0  0  0  0  0  0  0  0  0  0  0  0
    1.6847  -16.6790    0.0000 C   0  0  0  0  0  0  0  0  0  0  0  0
    0.5356  -17.6432    0.0000 C   0  0  0  0  0  0  0  0  0  0  0  0
  1  2  1  0
  2  3  2  0
  3  4  1  0
  4  5  2  0
  5  6  1  0
  6  7  1  0
  7  8  2  0
  7  9  1  0
  9 10  1  0
 10 11  2  0
 11 12  1  0
 12 13  2  0
 13 14  1  0
 14 15  2  0
  7 16  1  0
 16 17  1  0
 17 18  1  0
 18 19  2  0
 19 20  1  0
 20 21  2  0
 21 22  1  0
 22 23  1  0
 23 24  1  0
 24 25  2  0
 24 26  1  0
 26 27  1  0
 27 28  2  0
 28 29  1  0
 29 30  2  0
 30 31  1  0
 31 32  2  0
 24 33  1  0
 33 34  1  0
 34 35  2  0
 35 36  1  0
 36 37  2  0
 37 38  1  0
 38 39  2  0
 22 40  1  0
 40 41  2  0
 40 42  1  0
 42 43  1  0
 43 44  2  0
 44 45  1  0
 45 46  2  0
 46 47  1  0
 47 48  2  0
 48 49  1  0
 49 50  2  0
 50 51  1  0
 51 52  2  0
 52 53  1  0
 53 54  2  0
 21 55  1  0
 55 56  2  0
 17 57  1  0
 57 58  2  0
 57 59  1  0
 59 60  1  0
 60 61  2  0
 61 62  1  0
 62 63  2  0
 63 64  1  0
 64 65  2  0
 65 66  1  0
 66 67  2  0
 67 68  1  0
 68 69  2  0
 69 70  1  0
 70 71  2  0
  5 72  1  0
 72 73  2  0
 73  2  1  0
 15 10  1  0
 56 18  1  0
 71 57  1  0
 32 27  1  0
 39 34  1  0
 54 40  1  0
 65 60  1  0
 71 66  1  0
 48 43  1  0
 54 49  1  0
M  END
>  <Candidate_ID>  (260) 
CAND_R2_260

>  <Candidate_Name>  (260) 
TDCA-DOPO-3-amino

>  <Parent_Seed_ID>  (260) 
TRAIN_137

>  <Parent_Name>  (260) 
TDCA-DOPO-3

>  <Transformation_Code>  (260) 
amino

>  <Design_Family>  (260) 
P-N

>  <Preparation_Type>  (260) 
Co-curing

>  <Synthesis_Level>  (260) 
B

>  <Parent_Tanimoto_r3>  (260) 
0.8666666666666667

>  <Max_Train_Tanimoto_r3>  (260) 
0.8666666666666667

>  <Risk_Flags>  (260) 
none

$$$$
CAND_R2_261 | TDCA-DOPO-3-hydroxy
     RDKit          2D

 73 83  0  0  0  0  0  0  0  0999 V2000
    0.8356  -13.0209    0.0000 O   0  0  0  0  0  0  0  0  0  0  0  0
    2.3128  -12.7604    0.0000 P   0  0  0  0  0  0  0  0  0  0  0  0
    3.7900  -12.4999    0.0000 O   0  0  0  0  0  0  0  0  0  0  0  0
    4.7542  -13.6490    0.0000 C   0  0  0  0  0  0  0  0  0  0  0  0
    4.2412  -15.0585    0.0000 C   0  0  0  0  0  0  0  0  0  0  0  0
    5.2054  -16.2076    0.0000 C   0  0  0  0  0  0  0  0  0  0  0  0
    6.6826  -15.9471    0.0000 C   0  0  0  0  0  0  0  0  0  0  0  0
    7.1956  -14.5376    0.0000 C   0  0  0  0  0  0  0  0  0  0  0  0
    6.2314  -13.3885    0.0000 C   0  0  0  0  0  0  0  0  0  0  0  0
    2.5733  -14.2376    0.0000 O   0  0  0  0  0  0  0  0  0  0  0  0
    1.4242  -15.2018    0.0000 C   0  0  0  0  0  0  0  0  0  0  0  0
    0.0147  -14.6887    0.0000 C   0  0  0  0  0  0  0  0  0  0  0  0
   -1.1344  -15.6529    0.0000 C   0  0  0  0  0  0  0  0  0  0  0  0
   -0.8739  -17.1301    0.0000 C   0  0  0  0  0  0  0  0  0  0  0  0
    0.5356  -17.6432    0.0000 C   0  0  0  0  0  0  0  0  0  0  0  0
    1.6847  -16.6790    0.0000 C   0  0  0  0  0  0  0  0  0  0  0  0
    2.0524  -11.2832    0.0000 O   0  0  0  0  0  0  0  0  0  0  0  0
    3.2014  -10.3190    0.0000 C   0  0  0  0  0  0  0  0  0  0  0  0
    2.9410   -8.8418    0.0000 C   0  0  0  0  0  0  0  0  0  0  0  0
    4.0900   -7.8776    0.0000 C   0  0  0  0  0  0  0  0  0  0  0  0
    3.8296   -6.4004    0.0000 C   0  0  0  0  0  0  0  0  0  0  0  0
    2.4200   -5.8874    0.0000 C   0  0  0  0  0  0  0  0  0  0  0  0
    2.1595   -4.4101    0.0000 C   0  0  0  0  0  0  0  0  0  0  0  0
    3.3086   -3.4460    0.0000 O   0  0  0  0  0  0  0  0  0  0  0  0
    4.7181   -3.9590    0.0000 P   0  0  0  0  0  0  0  0  0  0  0  0
    4.2051   -5.3685    0.0000 O   0  0  0  0  0  0  0  0  0  0  0  0
    5.2312   -2.5495    0.0000 O   0  0  0  0  0  0  0  0  0  0  0  0
    4.2670   -1.4004    0.0000 C   0  0  0  0  0  0  0  0  0  0  0  0
    2.7898   -1.6609    0.0000 C   0  0  0  0  0  0  0  0  0  0  0  0
    1.8256   -0.5118    0.0000 C   0  0  0  0  0  0  0  0  0  0  0  0
    2.3386    0.8977    0.0000 C   0  0  0  0  0  0  0  0  0  0  0  0
    3.8158    1.1582    0.0000 C   0  0  0  0  0  0  0  0  0  0  0  0
    4.7800    0.0092    0.0000 C   0  0  0  0  0  0  0  0  0  0  0  0
    6.1277   -4.4720    0.0000 O   0  0  0  0  0  0  0  0  0  0  0  0
    7.2768   -3.5078    0.0000 C   0  0  0  0  0  0  0  0  0  0  0  0
    7.0163   -2.0306    0.0000 C   0  0  0  0  0  0  0  0  0  0  0  0
    8.1653   -1.0664    0.0000 C   0  0  0  0  0  0  0  0  0  0  0  0
    9.5749   -1.5795    0.0000 C   0  0  0  0  0  0  0  0  0  0  0  0
   10.7240   -0.6153    0.0000 O   0  0  0  0  0  0  0  0  0  0  0  0
    9.8354   -3.0567    0.0000 C   0  0  0  0  0  0  0  0  0  0  0  0
    8.6863   -4.0209    0.0000 C   0  0  0  0  0  0  0  0  0  0  0  0
    0.7500   -3.8971    0.0000 P   0  0  0  0  0  0  0  0  0  0  0  0
    1.5000   -2.5981    0.0000 O   0  0  0  0  0  0  0  0  0  0  0  0
    0.4895   -5.3743    0.0000 O   0  0  0  0  0  0  0  0  0  0  0  0
   -0.9200   -5.8874    0.0000 C   0  0  0  0  0  0  0  0  0  0  0  0
   -1.1805   -7.3646    0.0000 C   0  0  0  0  0  0  0  0  0  0  0  0
   -2.5900   -7.8776    0.0000 C   0  0  0  0  0  0  0  0  0  0  0  0
   -3.7391   -6.9134    0.0000 C   0  0  0  0  0  0  0  0  0  0  0  0
   -3.4786   -5.4362    0.0000 C   0  0  0  0  0  0  0  0  0  0  0  0
   -2.0691   -4.9232    0.0000 C   0  0  0  0  0  0  0  0  0  0  0  0
   -1.8086   -3.4460    0.0000 C   0  0  0  0  0  0  0  0  0  0  0  0
   -2.9577   -2.4818    0.0000 C   0  0  0  0  0  0  0  0  0  0  0  0
   -2.6972   -1.0046    0.0000 C   0  0  0  0  0  0  0  0  0  0  0  0
   -1.2877   -0.4915    0.0000 C   0  0  0  0  0  0  0  0  0  0  0  0
   -0.1386   -1.4557    0.0000 C   0  0  0  0  0  0  0  0  0  0  0  0
   -0.3991   -2.9329    0.0000 C   0  0  0  0  0  0  0  0  0  0  0  0
    1.2709   -6.8515    0.0000 C   0  0  0  0  0  0  0  0  0  0  0  0
    1.5314   -8.3287    0.0000 C   0  0  0  0  0  0  0  0  0  0  0  0
    4.6110  -10.8320    0.0000 P   0  0  0  0  0  0  0  0  0  0  0  0
    4.3913  -11.5983    0.0000 O   0  0  0  0  0  0  0  0  0  0  0  0
    4.8714   -9.3548    0.0000 O   0  0  0  0  0  0  0  0  0  0  0  0
    6.2810   -8.8418    0.0000 C   0  0  0  0  0  0  0  0  0  0  0  0
    6.5415   -7.3646    0.0000 C   0  0  0  0  0  0  0  0  0  0  0  0
    7.9510   -6.8515    0.0000 C   0  0  0  0  0  0  0  0  0  0  0  0
    9.1001   -7.8157    0.0000 C   0  0  0  0  0  0  0  0  0  0  0  0
    8.8396   -9.2929    0.0000 C   0  0  0  0  0  0  0  0  0  0  0  0
    7.4300   -9.8060    0.0000 C   0  0  0  0  0  0  0  0  0  0  0  0
    7.1696  -11.2832    0.0000 C   0  0  0  0  0  0  0  0  0  0  0  0
    8.3186  -12.2474    0.0000 C   0  0  0  0  0  0  0  0  0  0  0  0
    8.0582  -13.7246    0.0000 C   0  0  0  0  0  0  0  0  0  0  0  0
    6.6486  -14.2376    0.0000 C   0  0  0  0  0  0  0  0  0  0  0  0
    5.4996  -13.2734    0.0000 C   0  0  0  0  0  0  0  0  0  0  0  0
    5.7600  -11.7962    0.0000 C   0  0  0  0  0  0  0  0  0  0  0  0
  1  2  2  0
  2  3  1  0
  3  4  1  0
  4  5  2  0
  5  6  1  0
  6  7  2  0
  7  8  1  0
  8  9  2  0
  2 10  1  0
 10 11  1  0
 11 12  2  0
 12 13  1  0
 13 14  2  0
 14 15  1  0
 15 16  2  0
  2 17  1  0
 17 18  1  0
 18 19  1  0
 19 20  2  0
 20 21  1  0
 21 22  2  0
 22 23  1  0
 23 24  1  0
 24 25  1  0
 25 26  2  0
 25 27  1  0
 27 28  1  0
 28 29  2  0
 29 30  1  0
 30 31  2  0
 31 32  1  0
 32 33  2  0
 25 34  1  0
 34 35  1  0
 35 36  2  0
 36 37  1  0
 37 38  2  0
 38 39  1  0
 38 40  1  0
 40 41  2  0
 23 42  1  0
 42 43  2  0
 42 44  1  0
 44 45  1  0
 45 46  2  0
 46 47  1  0
 47 48  2  0
 48 49  1  0
 49 50  2  0
 50 51  1  0
 51 52  2  0
 52 53  1  0
 53 54  2  0
 54 55  1  0
 55 56  2  0
 22 57  1  0
 57 58  2  0
 18 59  1  0
 59 60  2  0
 59 61  1  0
 61 62  1  0
 62 63  2  0
 63 64  1  0
 64 65  2  0
 65 66  1  0
 66 67  2  0
 67 68  1  0
 68 69  2  0
 69 70  1  0
 70 71  2  0
 71 72  1  0
 72 73  2  0
  9  4  1  0
 16 11  1  0
 58 19  1  0
 73 59  1  0
 33 28  1  0
 41 35  1  0
 56 42  1  0
 67 62  1  0
 73 68  1  0
 50 45  1  0
 56 51  1  0
M  END
>  <Candidate_ID>  (261) 
CAND_R2_261

>  <Candidate_Name>  (261) 
TDCA-DOPO-3-hydroxy

>  <Parent_Seed_ID>  (261) 
TRAIN_137

>  <Parent_Name>  (261) 
TDCA-DOPO-3

>  <Transformation_Code>  (261) 
hydroxy

>  <Design_Family>  (261) 
P-only

>  <Preparation_Type>  (261) 
Additive

>  <Synthesis_Level>  (261) 
B

>  <Parent_Tanimoto_r3>  (261) 
0.8666666666666667

>  <Max_Train_Tanimoto_r3>  (261) 
0.8666666666666667

>  <Risk_Flags>  (261) 
none

$$$$
CAND_R2_262 | TDCA-DOPO-3-hydroxymethyl
     RDKit          2D

 74 84  0  0  0  0  0  0  0  0999 V2000
    0.8356  -13.0209    0.0000 O   0  0  0  0  0  0  0  0  0  0  0  0
    2.3128  -12.7604    0.0000 P   0  0  0  0  0  0  0  0  0  0  0  0
    3.7900  -12.4999    0.0000 O   0  0  0  0  0  0  0  0  0  0  0  0
    4.7542  -13.6490    0.0000 C   0  0  0  0  0  0  0  0  0  0  0  0
    4.2412  -15.0585    0.0000 C   0  0  0  0  0  0  0  0  0  0  0  0
    5.2054  -16.2076    0.0000 C   0  0  0  0  0  0  0  0  0  0  0  0
    6.6826  -15.9471    0.0000 C   0  0  0  0  0  0  0  0  0  0  0  0
    7.1956  -14.5376    0.0000 C   0  0  0  0  0  0  0  0  0  0  0  0
    6.2314  -13.3885    0.0000 C   0  0  0  0  0  0  0  0  0  0  0  0
    2.5733  -14.2376    0.0000 O   0  0  0  0  0  0  0  0  0  0  0  0
    1.4242  -15.2018    0.0000 C   0  0  0  0  0  0  0  0  0  0  0  0
    0.0147  -14.6887    0.0000 C   0  0  0  0  0  0  0  0  0  0  0  0
   -1.1344  -15.6529    0.0000 C   0  0  0  0  0  0  0  0  0  0  0  0
   -0.8739  -17.1301    0.0000 C   0  0  0  0  0  0  0  0  0  0  0  0
    0.5356  -17.6432    0.0000 C   0  0  0  0  0  0  0  0  0  0  0  0
    1.6847  -16.6790    0.0000 C   0  0  0  0  0  0  0  0  0  0  0  0
    2.0524  -11.2832    0.0000 O   0  0  0  0  0  0  0  0  0  0  0  0
    3.2014  -10.3190    0.0000 C   0  0  0  0  0  0  0  0  0  0  0  0
    2.9410   -8.8418    0.0000 C   0  0  0  0  0  0  0  0  0  0  0  0
    4.0900   -7.8776    0.0000 C   0  0  0  0  0  0  0  0  0  0  0  0
    3.8296   -6.4004    0.0000 C   0  0  0  0  0  0  0  0  0  0  0  0
    2.4200   -5.8874    0.0000 C   0  0  0  0  0  0  0  0  0  0  0  0
    2.1595   -4.4101    0.0000 C   0  0  0  0  0  0  0  0  0  0  0  0
    3.3086   -3.4460    0.0000 O   0  0  0  0  0  0  0  0  0  0  0  0
    4.7181   -3.9590    0.0000 P   0  0  0  0  0  0  0  0  0  0  0  0
    4.2051   -5.3685    0.0000 O   0  0  0  0  0  0  0  0  0  0  0  0
    5.2312   -2.5495    0.0000 O   0  0  0  0  0  0  0  0  0  0  0  0
    4.2670   -1.4004    0.0000 C   0  0  0  0  0  0  0  0  0  0  0  0
    2.7898   -1.6609    0.0000 C   0  0  0  0  0  0  0  0  0  0  0  0
    1.8256   -0.5118    0.0000 C   0  0  0  0  0  0  0  0  0  0  0  0
    2.3386    0.8977    0.0000 C   0  0  0  0  0  0  0  0  0  0  0  0
    3.8158    1.1582    0.0000 C   0  0  0  0  0  0  0  0  0  0  0  0
    4.7800    0.0092    0.0000 C   0  0  0  0  0  0  0  0  0  0  0  0
    6.1277   -4.4720    0.0000 O   0  0  0  0  0  0  0  0  0  0  0  0
    7.2768   -3.5078    0.0000 C   0  0  0  0  0  0  0  0  0  0  0  0
    7.0163   -2.0306    0.0000 C   0  0  0  0  0  0  0  0  0  0  0  0
    8.1653   -1.0664    0.0000 C   0  0  0  0  0  0  0  0  0  0  0  0
    9.5749   -1.5795    0.0000 C   0  0  0  0  0  0  0  0  0  0  0  0
   10.7240   -0.6153    0.0000 C   0  0  0  0  0  0  0  0  0  0  0  0
   12.1335   -1.1283    0.0000 O   0  0  0  0  0  0  0  0  0  0  0  0
    9.8354   -3.0567    0.0000 C   0  0  0  0  0  0  0  0  0  0  0  0
    8.6863   -4.0209    0.0000 C   0  0  0  0  0  0  0  0  0  0  0  0
    0.7500   -3.8971    0.0000 P   0  0  0  0  0  0  0  0  0  0  0  0
    1.5000   -2.5981    0.0000 O   0  0  0  0  0  0  0  0  0  0  0  0
    0.4895   -5.3743    0.0000 O   0  0  0  0  0  0  0  0  0  0  0  0
   -0.9200   -5.8874    0.0000 C   0  0  0  0  0  0  0  0  0  0  0  0
   -1.1805   -7.3646    0.0000 C   0  0  0  0  0  0  0  0  0  0  0  0
   -2.5900   -7.8776    0.0000 C   0  0  0  0  0  0  0  0  0  0  0  0
   -3.7391   -6.9134    0.0000 C   0  0  0  0  0  0  0  0  0  0  0  0
   -3.4786   -5.4362    0.0000 C   0  0  0  0  0  0  0  0  0  0  0  0
   -2.0691   -4.9232    0.0000 C   0  0  0  0  0  0  0  0  0  0  0  0
   -1.8086   -3.4460    0.0000 C   0  0  0  0  0  0  0  0  0  0  0  0
   -2.9577   -2.4818    0.0000 C   0  0  0  0  0  0  0  0  0  0  0  0
   -2.6972   -1.0046    0.0000 C   0  0  0  0  0  0  0  0  0  0  0  0
   -1.2877   -0.4915    0.0000 C   0  0  0  0  0  0  0  0  0  0  0  0
   -0.1386   -1.4557    0.0000 C   0  0  0  0  0  0  0  0  0  0  0  0
   -0.3991   -2.9329    0.0000 C   0  0  0  0  0  0  0  0  0  0  0  0
    1.2709   -6.8515    0.0000 C   0  0  0  0  0  0  0  0  0  0  0  0
    1.5314   -8.3287    0.0000 C   0  0  0  0  0  0  0  0  0  0  0  0
    4.6110  -10.8320    0.0000 P   0  0  0  0  0  0  0  0  0  0  0  0
    4.3913  -11.5983    0.0000 O   0  0  0  0  0  0  0  0  0  0  0  0
    4.8714   -9.3548    0.0000 O   0  0  0  0  0  0  0  0  0  0  0  0
    6.2810   -8.8418    0.0000 C   0  0  0  0  0  0  0  0  0  0  0  0
    6.5415   -7.3646    0.0000 C   0  0  0  0  0  0  0  0  0  0  0  0
    7.9510   -6.8515    0.0000 C   0  0  0  0  0  0  0  0  0  0  0  0
    9.1001   -7.8157    0.0000 C   0  0  0  0  0  0  0  0  0  0  0  0
    8.8396   -9.2929    0.0000 C   0  0  0  0  0  0  0  0  0  0  0  0
    7.4300   -9.8060    0.0000 C   0  0  0  0  0  0  0  0  0  0  0  0
    7.1696  -11.2832    0.0000 C   0  0  0  0  0  0  0  0  0  0  0  0
    8.3186  -12.2474    0.0000 C   0  0  0  0  0  0  0  0  0  0  0  0
    8.0582  -13.7246    0.0000 C   0  0  0  0  0  0  0  0  0  0  0  0
    6.6486  -14.2376    0.0000 C   0  0  0  0  0  0  0  0  0  0  0  0
    5.4996  -13.2734    0.0000 C   0  0  0  0  0  0  0  0  0  0  0  0
    5.7600  -11.7962    0.0000 C   0  0  0  0  0  0  0  0  0  0  0  0
  1  2  2  0
  2  3  1  0
  3  4  1  0
  4  5  2  0
  5  6  1  0
  6  7  2  0
  7  8  1  0
  8  9  2  0
  2 10  1  0
 10 11  1  0
 11 12  2  0
 12 13  1  0
 13 14  2  0
 14 15  1  0
 15 16  2  0
  2 17  1  0
 17 18  1  0
 18 19  1  0
 19 20  2  0
 20 21  1  0
 21 22  2  0
 22 23  1  0
 23 24  1  0
 24 25  1  0
 25 26  2  0
 25 27  1  0
 27 28  1  0
 28 29  2  0
 29 30  1  0
 30 31  2  0
 31 32  1  0
 32 33  2  0
 25 34  1  0
 34 35  1  0
 35 36  2  0
 36 37  1  0
 37 38  2  0
 38 39  1  0
 39 40  1  0
 38 41  1  0
 41 42  2  0
 23 43  1  0
 43 44  2  0
 43 45  1  0
 45 46  1  0
 46 47  2  0
 47 48  1  0
 48 49  2  0
 49 50  1  0
 50 51  2  0
 51 52  1  0
 52 53  2  0
 53 54  1  0
 54 55  2  0
 55 56  1  0
 56 57  2  0
 22 58  1  0
 58 59  2  0
 18 60  1  0
 60 61  2  0
 60 62  1  0
 62 63  1  0
 63 64  2  0
 64 65  1  0
 65 66  2  0
 66 67  1  0
 67 68  2  0
 68 69  1  0
 69 70  2  0
 70 71  1  0
 71 72  2  0
 72 73  1  0
 73 74  2  0
  9  4  1  0
 16 11  1  0
 59 19  1  0
 74 60  1  0
 33 28  1  0
 42 35  1  0
 57 43  1  0
 68 63  1  0
 74 69  1  0
 51 46  1  0
 57 52  1  0
M  END
>  <Candidate_ID>  (262) 
CAND_R2_262

>  <Candidate_Name>  (262) 
TDCA-DOPO-3-hydroxymethyl

>  <Parent_Seed_ID>  (262) 
TRAIN_137

>  <Parent_Name>  (262) 
TDCA-DOPO-3

>  <Transformation_Code>  (262) 
hydroxymethyl

>  <Design_Family>  (262) 
P-only

>  <Preparation_Type>  (262) 
Additive

>  <Synthesis_Level>  (262) 
B

>  <Parent_Tanimoto_r3>  (262) 
0.8333333333333334

>  <Max_Train_Tanimoto_r3>  (262) 
0.8333333333333334

>  <Risk_Flags>  (262) 
none

$$$$
CAND_R2_263 | TDCA-DOPO-3-carboxamide
     RDKit          2D

 75 85  0  0  0  0  0  0  0  0999 V2000
   -3.4325  -17.5813    0.0000 N   0  0  0  0  0  0  0  0  0  0  0  0
   -2.0230  -18.0943    0.0000 C   0  0  0  0  0  0  0  0  0  0  0  0
   -1.7625  -19.5715    0.0000 O   0  0  0  0  0  0  0  0  0  0  0  0
   -0.8739  -17.1301    0.0000 C   0  0  0  0  0  0  0  0  0  0  0  0
   -1.1344  -15.6529    0.0000 C   0  0  0  0  0  0  0  0  0  0  0  0
    0.0147  -14.6887    0.0000 C   0  0  0  0  0  0  0  0  0  0  0  0
    1.4242  -15.2018    0.0000 C   0  0  0  0  0  0  0  0  0  0  0  0
    2.5733  -14.2376    0.0000 O   0  0  0  0  0  0  0  0  0  0  0  0
    2.3128  -12.7604    0.0000 P   0  0  0  0  0  0  0  0  0  0  0  0
    0.8356  -13.0209    0.0000 O   0  0  0  0  0  0  0  0  0  0  0  0
    3.7900  -12.4999    0.0000 O   0  0  0  0  0  0  0  0  0  0  0  0
    4.7542  -13.6490    0.0000 C   0  0  0  0  0  0  0  0  0  0  0  0
    4.2412  -15.0585    0.0000 C   0  0  0  0  0  0  0  0  0  0  0  0
    5.2054  -16.2076    0.0000 C   0  0  0  0  0  0  0  0  0  0  0  0
    6.6826  -15.9471    0.0000 C   0  0  0  0  0  0  0  0  0  0  0  0
    7.1956  -14.5376    0.0000 C   0  0  0  0  0  0  0  0  0  0  0  0
    6.2314  -13.3885    0.0000 C   0  0  0  0  0  0  0  0  0  0  0  0
    2.0524  -11.2832    0.0000 O   0  0  0  0  0  0  0  0  0  0  0  0
    3.2014  -10.3190    0.0000 C   0  0  0  0  0  0  0  0  0  0  0  0
    2.9410   -8.8418    0.0000 C   0  0  0  0  0  0  0  0  0  0  0  0
    4.0900   -7.8776    0.0000 C   0  0  0  0  0  0  0  0  0  0  0  0
    3.8296   -6.4004    0.0000 C   0  0  0  0  0  0  0  0  0  0  0  0
    2.4200   -5.8874    0.0000 C   0  0  0  0  0  0  0  0  0  0  0  0
    2.1595   -4.4101    0.0000 C   0  0  0  0  0  0  0  0  0  0  0  0
    3.3086   -3.4460    0.0000 O   0  0  0  0  0  0  0  0  0  0  0  0
    4.7181   -3.9590    0.0000 P   0  0  0  0  0  0  0  0  0  0  0  0
    4.2051   -5.3685    0.0000 O   0  0  0  0  0  0  0  0  0  0  0  0
    5.2312   -2.5495    0.0000 O   0  0  0  0  0  0  0  0  0  0  0  0
    4.2670   -1.4004    0.0000 C   0  0  0  0  0  0  0  0  0  0  0  0
    2.7898   -1.6609    0.0000 C   0  0  0  0  0  0  0  0  0  0  0  0
    1.8256   -0.5118    0.0000 C   0  0  0  0  0  0  0  0  0  0  0  0
    2.3386    0.8977    0.0000 C   0  0  0  0  0  0  0  0  0  0  0  0
    3.8158    1.1582    0.0000 C   0  0  0  0  0  0  0  0  0  0  0  0
    4.7800    0.0092    0.0000 C   0  0  0  0  0  0  0  0  0  0  0  0
    6.1277   -4.4720    0.0000 O   0  0  0  0  0  0  0  0  0  0  0  0
    7.2768   -3.5078    0.0000 C   0  0  0  0  0  0  0  0  0  0  0  0
    7.0163   -2.0306    0.0000 C   0  0  0  0  0  0  0  0  0  0  0  0
    8.1653   -1.0664    0.0000 C   0  0  0  0  0  0  0  0  0  0  0  0
    9.5749   -1.5795    0.0000 C   0  0  0  0  0  0  0  0  0  0  0  0
    9.8354   -3.0567    0.0000 C   0  0  0  0  0  0  0  0  0  0  0  0
    8.6863   -4.0209    0.0000 C   0  0  0  0  0  0  0  0  0  0  0  0
    0.7500   -3.8971    0.0000 P   0  0  0  0  0  0  0  0  0  0  0  0
    1.5000   -2.5981    0.0000 O   0  0  0  0  0  0  0  0  0  0  0  0
    0.4895   -5.3743    0.0000 O   0  0  0  0  0  0  0  0  0  0  0  0
   -0.9200   -5.8874    0.0000 C   0  0  0  0  0  0  0  0  0  0  0  0
   -1.1805   -7.3646    0.0000 C   0  0  0  0  0  0  0  0  0  0  0  0
   -2.5900   -7.8776    0.0000 C   0  0  0  0  0  0  0  0  0  0  0  0
   -3.7391   -6.9134    0.0000 C   0  0  0  0  0  0  0  0  0  0  0  0
   -3.4786   -5.4362    0.0000 C   0  0  0  0  0  0  0  0  0  0  0  0
   -2.0691   -4.9232    0.0000 C   0  0  0  0  0  0  0  0  0  0  0  0
   -1.8086   -3.4460    0.0000 C   0  0  0  0  0  0  0  0  0  0  0  0
   -2.9577   -2.4818    0.0000 C   0  0  0  0  0  0  0  0  0  0  0  0
   -2.6972   -1.0046    0.0000 C   0  0  0  0  0  0  0  0  0  0  0  0
   -1.2877   -0.4915    0.0000 C   0  0  0  0  0  0  0  0  0  0  0  0
   -0.1386   -1.4557    0.0000 C   0  0  0  0  0  0  0  0  0  0  0  0
   -0.3991   -2.9329    0.0000 C   0  0  0  0  0  0  0  0  0  0  0  0
    1.2709   -6.8515    0.0000 C   0  0  0  0  0  0  0  0  0  0  0  0
    1.5314   -8.3287    0.0000 C   0  0  0  0  0  0  0  0  0  0  0  0
    4.6110  -10.8320    0.0000 P   0  0  0  0  0  0  0  0  0  0  0  0
    4.3913  -11.5983    0.0000 O   0  0  0  0  0  0  0  0  0  0  0  0
    4.8714   -9.3548    0.0000 O   0  0  0  0  0  0  0  0  0  0  0  0
    6.2810   -8.8418    0.0000 C   0  0  0  0  0  0  0  0  0  0  0  0
    6.5415   -7.3646    0.0000 C   0  0  0  0  0  0  0  0  0  0  0  0
    7.9510   -6.8515    0.0000 C   0  0  0  0  0  0  0  0  0  0  0  0
    9.1001   -7.8157    0.0000 C   0  0  0  0  0  0  0  0  0  0  0  0
    8.8396   -9.2929    0.0000 C   0  0  0  0  0  0  0  0  0  0  0  0
    7.4300   -9.8060    0.0000 C   0  0  0  0  0  0  0  0  0  0  0  0
    7.1696  -11.2832    0.0000 C   0  0  0  0  0  0  0  0  0  0  0  0
    8.3186  -12.2474    0.0000 C   0  0  0  0  0  0  0  0  0  0  0  0
    8.0582  -13.7246    0.0000 C   0  0  0  0  0  0  0  0  0  0  0  0
    6.6486  -14.2376    0.0000 C   0  0  0  0  0  0  0  0  0  0  0  0
    5.4996  -13.2734    0.0000 C   0  0  0  0  0  0  0  0  0  0  0  0
    5.7600  -11.7962    0.0000 C   0  0  0  0  0  0  0  0  0  0  0  0
    1.6847  -16.6790    0.0000 C   0  0  0  0  0  0  0  0  0  0  0  0
    0.5356  -17.6432    0.0000 C   0  0  0  0  0  0  0  0  0  0  0  0
  1  2  1  0
  2  3  2  0
  2  4  1  0
  4  5  2  0
  5  6  1  0
  6  7  2  0
  7  8  1  0
  8  9  1  0
  9 10  2  0
  9 11  1  0
 11 12  1  0
 12 13  2  0
 13 14  1  0
 14 15  2  0
 15 16  1  0
 16 17  2  0
  9 18  1  0
 18 19  1  0
 19 20  1  0
 20 21  2  0
 21 22  1  0
 22 23  2  0
 23 24  1  0
 24 25  1  0
 25 26  1  0
 26 27  2  0
 26 28  1  0
 28 29  1  0
 29 30  2  0
 30 31  1  0
 31 32  2  0
 32 33  1  0
 33 34  2  0
 26 35  1  0
 35 36  1  0
 36 37  2  0
 37 38  1  0
 38 39  2  0
 39 40  1  0
 40 41  2  0
 24 42  1  0
 42 43  2  0
 42 44  1  0
 44 45  1  0
 45 46  2  0
 46 47  1  0
 47 48  2  0
 48 49  1  0
 49 50  2  0
 50 51  1  0
 51 52  2  0
 52 53  1  0
 53 54  2  0
 54 55  1  0
 55 56  2  0
 23 57  1  0
 57 58  2  0
 19 59  1  0
 59 60  2  0
 59 61  1  0
 61 62  1  0
 62 63  2  0
 63 64  1  0
 64 65  2  0
 65 66  1  0
 66 67  2  0
 67 68  1  0
 68 69  2  0
 69 70  1  0
 70 71  2  0
 71 72  1  0
 72 73  2  0
  7 74  1  0
 74 75  2  0
 75  4  1  0
 17 12  1  0
 58 20  1  0
 73 59  1  0
 34 29  1  0
 41 36  1  0
 56 42  1  0
 67 62  1  0
 73 68  1  0
 50 45  1  0
 56 51  1  0
M  END
>  <Candidate_ID>  (263) 
CAND_R2_263

>  <Candidate_Name>  (263) 
TDCA-DOPO-3-carboxamide

>  <Parent_Seed_ID>  (263) 
TRAIN_137

>  <Parent_Name>  (263) 
TDCA-DOPO-3

>  <Transformation_Code>  (263) 
carboxamide

>  <Design_Family>  (263) 
P-N

>  <Preparation_Type>  (263) 
Additive

>  <Synthesis_Level>  (263) 
B

>  <Parent_Tanimoto_r3>  (263) 
0.8227848101265823

>  <Max_Train_Tanimoto_r3>  (263) 
0.8227848101265823

>  <Risk_Flags>  (263) 
none

$$$$
CAND_R2_264 | TDCA-DOPO-3-boronic-acid
     RDKit          2D

 75 85  0  0  0  0  0  0  0  0999 V2000
    0.8356  -13.0209    0.0000 O   0  0  0  0  0  0  0  0  0  0  0  0
    2.3128  -12.7604    0.0000 P   0  0  0  0  0  0  0  0  0  0  0  0
    3.7900  -12.4999    0.0000 O   0  0  0  0  0  0  0  0  0  0  0  0
    4.7542  -13.6490    0.0000 C   0  0  0  0  0  0  0  0  0  0  0  0
    4.2412  -15.0585    0.0000 C   0  0  0  0  0  0  0  0  0  0  0  0
    5.2054  -16.2076    0.0000 C   0  0  0  0  0  0  0  0  0  0  0  0
    6.6826  -15.9471    0.0000 C   0  0  0  0  0  0  0  0  0  0  0  0
    7.1956  -14.5376    0.0000 C   0  0  0  0  0  0  0  0  0  0  0  0
    6.2314  -13.3885    0.0000 C   0  0  0  0  0  0  0  0  0  0  0  0
    2.5733  -14.2376    0.0000 O   0  0  0  0  0  0  0  0  0  0  0  0
    1.4242  -15.2018    0.0000 C   0  0  0  0  0  0  0  0  0  0  0  0
    0.0147  -14.6887    0.0000 C   0  0  0  0  0  0  0  0  0  0  0  0
   -1.1344  -15.6529    0.0000 C   0  0  0  0  0  0  0  0  0  0  0  0
   -0.8739  -17.1301    0.0000 C   0  0  0  0  0  0  0  0  0  0  0  0
    0.5356  -17.6432    0.0000 C   0  0  0  0  0  0  0  0  0  0  0  0
    1.6847  -16.6790    0.0000 C   0  0  0  0  0  0  0  0  0  0  0  0
    2.0524  -11.2832    0.0000 O   0  0  0  0  0  0  0  0  0  0  0  0
    3.2014  -10.3190    0.0000 C   0  0  0  0  0  0  0  0  0  0  0  0
    2.9410   -8.8418    0.0000 C   0  0  0  0  0  0  0  0  0  0  0  0
    4.0900   -7.8776    0.0000 C   0  0  0  0  0  0  0  0  0  0  0  0
    3.8296   -6.4004    0.0000 C   0  0  0  0  0  0  0  0  0  0  0  0
    2.4200   -5.8874    0.0000 C   0  0  0  0  0  0  0  0  0  0  0  0
    2.1595   -4.4101    0.0000 C   0  0  0  0  0  0  0  0  0  0  0  0
    3.3086   -3.4460    0.0000 O   0  0  0  0  0  0  0  0  0  0  0  0
    4.7181   -3.9590    0.0000 P   0  0  0  0  0  0  0  0  0  0  0  0
    4.2051   -5.3685    0.0000 O   0  0  0  0  0  0  0  0  0  0  0  0
    5.2312   -2.5495    0.0000 O   0  0  0  0  0  0  0  0  0  0  0  0
    4.2670   -1.4004    0.0000 C   0  0  0  0  0  0  0  0  0  0  0  0
    2.7898   -1.6609    0.0000 C   0  0  0  0  0  0  0  0  0  0  0  0
    1.8256   -0.5118    0.0000 C   0  0  0  0  0  0  0  0  0  0  0  0
    2.3386    0.8977    0.0000 C   0  0  0  0  0  0  0  0  0  0  0  0
    3.8158    1.1582    0.0000 C   0  0  0  0  0  0  0  0  0  0  0  0
    4.7800    0.0092    0.0000 C   0  0  0  0  0  0  0  0  0  0  0  0
    6.1277   -4.4720    0.0000 O   0  0  0  0  0  0  0  0  0  0  0  0
    7.2768   -3.5078    0.0000 C   0  0  0  0  0  0  0  0  0  0  0  0
    7.0163   -2.0306    0.0000 C   0  0  0  0  0  0  0  0  0  0  0  0
    8.1653   -1.0664    0.0000 C   0  0  0  0  0  0  0  0  0  0  0  0
    9.5749   -1.5795    0.0000 C   0  0  0  0  0  0  0  0  0  0  0  0
   10.7240   -0.6153    0.0000 B   0  0  0  0  0  0  0  0  0  0  0  0
   12.1335   -1.1283    0.0000 O   0  0  0  0  0  0  0  0  0  0  0  0
   10.4635    0.8619    0.0000 O   0  0  0  0  0  0  0  0  0  0  0  0
    9.8354   -3.0567    0.0000 C   0  0  0  0  0  0  0  0  0  0  0  0
    8.6863   -4.0209    0.0000 C   0  0  0  0  0  0  0  0  0  0  0  0
    0.7500   -3.8971    0.0000 P   0  0  0  0  0  0  0  0  0  0  0  0
    1.5000   -2.5981    0.0000 O   0  0  0  0  0  0  0  0  0  0  0  0
    0.4895   -5.3743    0.0000 O   0  0  0  0  0  0  0  0  0  0  0  0
   -0.9200   -5.8874    0.0000 C   0  0  0  0  0  0  0  0  0  0  0  0
   -1.1805   -7.3646    0.0000 C   0  0  0  0  0  0  0  0  0  0  0  0
   -2.5900   -7.8776    0.0000 C   0  0  0  0  0  0  0  0  0  0  0  0
   -3.7391   -6.9134    0.0000 C   0  0  0  0  0  0  0  0  0  0  0  0
   -3.4786   -5.4362    0.0000 C   0  0  0  0  0  0  0  0  0  0  0  0
   -2.0691   -4.9232    0.0000 C   0  0  0  0  0  0  0  0  0  0  0  0
   -1.8086   -3.4460    0.0000 C   0  0  0  0  0  0  0  0  0  0  0  0
   -2.9577   -2.4818    0.0000 C   0  0  0  0  0  0  0  0  0  0  0  0
   -2.6972   -1.0046    0.0000 C   0  0  0  0  0  0  0  0  0  0  0  0
   -1.2877   -0.4915    0.0000 C   0  0  0  0  0  0  0  0  0  0  0  0
   -0.1386   -1.4557    0.0000 C   0  0  0  0  0  0  0  0  0  0  0  0
   -0.3991   -2.9329    0.0000 C   0  0  0  0  0  0  0  0  0  0  0  0
    1.2709   -6.8515    0.0000 C   0  0  0  0  0  0  0  0  0  0  0  0
    1.5314   -8.3287    0.0000 C   0  0  0  0  0  0  0  0  0  0  0  0
    4.6110  -10.8320    0.0000 P   0  0  0  0  0  0  0  0  0  0  0  0
    4.3913  -11.5983    0.0000 O   0  0  0  0  0  0  0  0  0  0  0  0
    4.8714   -9.3548    0.0000 O   0  0  0  0  0  0  0  0  0  0  0  0
    6.2810   -8.8418    0.0000 C   0  0  0  0  0  0  0  0  0  0  0  0
    6.5415   -7.3646    0.0000 C   0  0  0  0  0  0  0  0  0  0  0  0
    7.9510   -6.8515    0.0000 C   0  0  0  0  0  0  0  0  0  0  0  0
    9.1001   -7.8157    0.0000 C   0  0  0  0  0  0  0  0  0  0  0  0
    8.8396   -9.2929    0.0000 C   0  0  0  0  0  0  0  0  0  0  0  0
    7.4300   -9.8060    0.0000 C   0  0  0  0  0  0  0  0  0  0  0  0
    7.1696  -11.2832    0.0000 C   0  0  0  0  0  0  0  0  0  0  0  0
    8.3186  -12.2474    0.0000 C   0  0  0  0  0  0  0  0  0  0  0  0
    8.0582  -13.7246    0.0000 C   0  0  0  0  0  0  0  0  0  0  0  0
    6.6486  -14.2376    0.0000 C   0  0  0  0  0  0  0  0  0  0  0  0
    5.4996  -13.2734    0.0000 C   0  0  0  0  0  0  0  0  0  0  0  0
    5.7600  -11.7962    0.0000 C   0  0  0  0  0  0  0  0  0  0  0  0
  1  2  2  0
  2  3  1  0
  3  4  1  0
  4  5  2  0
  5  6  1  0
  6  7  2  0
  7  8  1  0
  8  9  2  0
  2 10  1  0
 10 11  1  0
 11 12  2  0
 12 13  1  0
 13 14  2  0
 14 15  1  0
 15 16  2  0
  2 17  1  0
 17 18  1  0
 18 19  1  0
 19 20  2  0
 20 21  1  0
 21 22  2  0
 22 23  1  0
 23 24  1  0
 24 25  1  0
 25 26  2  0
 25 27  1  0
 27 28  1  0
 28 29  2  0
 29 30  1  0
 30 31  2  0
 31 32  1  0
 32 33  2  0
 25 34  1  0
 34 35  1  0
 35 36  2  0
 36 37  1  0
 37 38  2  0
 38 39  1  0
 39 40  1  0
 39 41  1  0
 38 42  1  0
 42 43  2  0
 23 44  1  0
 44 45  2  0
 44 46  1  0
 46 47  1  0
 47 48  2  0
 48 49  1  0
 49 50  2  0
 50 51  1  0
 51 52  2  0
 52 53  1  0
 53 54  2  0
 54 55  1  0
 55 56  2  0
 56 57  1  0
 57 58  2  0
 22 59  1  0
 59 60  2  0
 18 61  1  0
 61 62  2  0
 61 63  1  0
 63 64  1  0
 64 65  2  0
 65 66  1  0
 66 67  2  0
 67 68  1  0
 68 69  2  0
 69 70  1  0
 70 71  2  0
 71 72  1  0
 72 73  2  0
 73 74  1  0
 74 75  2  0
  9  4  1  0
 16 11  1  0
 60 19  1  0
 75 61  1  0
 33 28  1  0
 43 35  1  0
 58 44  1  0
 69 64  1  0
 75 70  1  0
 52 47  1  0
 58 53  1  0
M  END
>  <Candidate_ID>  (264) 
CAND_R2_264

>  <Candidate_Name>  (264) 
TDCA-DOPO-3-boronic-acid

>  <Parent_Seed_ID>  (264) 
TRAIN_137

>  <Parent_Name>  (264) 
TDCA-DOPO-3

>  <Transformation_Code>  (264) 
boronic_acid

>  <Design_Family>  (264) 
P-B

>  <Preparation_Type>  (264) 
Additive

>  <Synthesis_Level>  (264) 
B

>  <Parent_Tanimoto_r3>  (264) 
0.8333333333333334

>  <Max_Train_Tanimoto_r3>  (264) 
0.8333333333333334

>  <Risk_Flags>  (264) 
none

$$$$
CAND_R2_265 | TDCA-DOPO-3-pinacol-boronate
     RDKit          2D

 81 92  0  0  0  0  0  0  0  0999 V2000
   -2.6049  -21.4770    0.0000 C   0  0  0  0  0  0  0  0  0  0  0  0
   -3.3091  -20.1526    0.0000 C   0  0  0  0  0  0  0  0  0  0  0  0
   -4.5527  -20.9914    0.0000 C   0  0  0  0  0  0  0  0  0  0  0  0
   -1.9183  -19.5907    0.0000 O   0  0  0  0  0  0  0  0  0  0  0  0
   -2.0230  -18.0943    0.0000 B   0  0  0  0  0  0  0  0  0  0  0  0
   -0.8739  -17.1301    0.0000 C   0  0  0  0  0  0  0  0  0  0  0  0
    0.5356  -17.6432    0.0000 C   0  0  0  0  0  0  0  0  0  0  0  0
    1.6847  -16.6790    0.0000 C   0  0  0  0  0  0  0  0  0  0  0  0
    1.4242  -15.2018    0.0000 C   0  0  0  0  0  0  0  0  0  0  0  0
    2.5733  -14.2376    0.0000 O   0  0  0  0  0  0  0  0  0  0  0  0
    2.3128  -12.7604    0.0000 P   0  0  0  0  0  0  0  0  0  0  0  0
    0.8356  -13.0209    0.0000 O   0  0  0  0  0  0  0  0  0  0  0  0
    3.7900  -12.4999    0.0000 O   0  0  0  0  0  0  0  0  0  0  0  0
    4.7542  -13.6490    0.0000 C   0  0  0  0  0  0  0  0  0  0  0  0
    4.2412  -15.0585    0.0000 C   0  0  0  0  0  0  0  0  0  0  0  0
    5.2054  -16.2076    0.0000 C   0  0  0  0  0  0  0  0  0  0  0  0
    6.6826  -15.9471    0.0000 C   0  0  0  0  0  0  0  0  0  0  0  0
    7.1956  -14.5376    0.0000 C   0  0  0  0  0  0  0  0  0  0  0  0
    6.2314  -13.3885    0.0000 C   0  0  0  0  0  0  0  0  0  0  0  0
    2.0524  -11.2832    0.0000 O   0  0  0  0  0  0  0  0  0  0  0  0
    3.2014  -10.3190    0.0000 C   0  0  0  0  0  0  0  0  0  0  0  0
    2.9410   -8.8418    0.0000 C   0  0  0  0  0  0  0  0  0  0  0  0
    4.0900   -7.8776    0.0000 C   0  0  0  0  0  0  0  0  0  0  0  0
    3.8296   -6.4004    0.0000 C   0  0  0  0  0  0  0  0  0  0  0  0
    2.4200   -5.8874    0.0000 C   0  0  0  0  0  0  0  0  0  0  0  0
    2.1595   -4.4101    0.0000 C   0  0  0  0  0  0  0  0  0  0  0  0
    3.3086   -3.4460    0.0000 O   0  0  0  0  0  0  0  0  0  0  0  0
    4.7181   -3.9590    0.0000 P   0  0  0  0  0  0  0  0  0  0  0  0
    4.2051   -5.3685    0.0000 O   0  0  0  0  0  0  0  0  0  0  0  0
    5.2312   -2.5495    0.0000 O   0  0  0  0  0  0  0  0  0  0  0  0
    4.2670   -1.4004    0.0000 C   0  0  0  0  0  0  0  0  0  0  0  0
    2.7898   -1.6609    0.0000 C   0  0  0  0  0  0  0  0  0  0  0  0
    1.8256   -0.5118    0.0000 C   0  0  0  0  0  0  0  0  0  0  0  0
    2.3386    0.8977    0.0000 C   0  0  0  0  0  0  0  0  0  0  0  0
    3.8158    1.1582    0.0000 C   0  0  0  0  0  0  0  0  0  0  0  0
    4.7800    0.0092    0.0000 C   0  0  0  0  0  0  0  0  0  0  0  0
    6.1277   -4.4720    0.0000 O   0  0  0  0  0  0  0  0  0  0  0  0
    7.2768   -3.5078    0.0000 C   0  0  0  0  0  0  0  0  0  0  0  0
    7.0163   -2.0306    0.0000 C   0  0  0  0  0  0  0  0  0  0  0  0
    8.1653   -1.0664    0.0000 C   0  0  0  0  0  0  0  0  0  0  0  0
    9.5749   -1.5795    0.0000 C   0  0  0  0  0  0  0  0  0  0  0  0
    9.8354   -3.0567    0.0000 C   0  0  0  0  0  0  0  0  0  0  0  0
    8.6863   -4.0209    0.0000 C   0  0  0  0  0  0  0  0  0  0  0  0
    0.7500   -3.8971    0.0000 P   0  0  0  0  0  0  0  0  0  0  0  0
    1.5000   -2.5981    0.0000 O   0  0  0  0  0  0  0  0  0  0  0  0
    0.4895   -5.3743    0.0000 O   0  0  0  0  0  0  0  0  0  0  0  0
   -0.9200   -5.8874    0.0000 C   0  0  0  0  0  0  0  0  0  0  0  0
   -1.1805   -7.3646    0.0000 C   0  0  0  0  0  0  0  0  0  0  0  0
   -2.5900   -7.8776    0.0000 C   0  0  0  0  0  0  0  0  0  0  0  0
   -3.7391   -6.9134    0.0000 C   0  0  0  0  0  0  0  0  0  0  0  0
   -3.4786   -5.4362    0.0000 C   0  0  0  0  0  0  0  0  0  0  0  0
   -2.0691   -4.9232    0.0000 C   0  0  0  0  0  0  0  0  0  0  0  0
   -1.8086   -3.4460    0.0000 C   0  0  0  0  0  0  0  0  0  0  0  0
   -2.9577   -2.4818    0.0000 C   0  0  0  0  0  0  0  0  0  0  0  0
   -2.6972   -1.0046    0.0000 C   0  0  0  0  0  0  0  0  0  0  0  0
   -1.2877   -0.4915    0.0000 C   0  0  0  0  0  0  0  0  0  0  0  0
   -0.1386   -1.4557    0.0000 C   0  0  0  0  0  0  0  0  0  0  0  0
   -0.3991   -2.9329    0.0000 C   0  0  0  0  0  0  0  0  0  0  0  0
    1.2709   -6.8515    0.0000 C   0  0  0  0  0  0  0  0  0  0  0  0
    1.5314   -8.3287    0.0000 C   0  0  0  0  0  0  0  0  0  0  0  0
    4.6110  -10.8320    0.0000 P   0  0  0  0  0  0  0  0  0  0  0  0
    4.3913  -11.5983    0.0000 O   0  0  0  0  0  0  0  0  0  0  0  0
    4.8714   -9.3548    0.0000 O   0  0  0  0  0  0  0  0  0  0  0  0
    6.2810   -8.8418    0.0000 C   0  0  0  0  0  0  0  0  0  0  0  0
    6.5415   -7.3646    0.0000 C   0  0  0  0  0  0  0  0  0  0  0  0
    7.9510   -6.8515    0.0000 C   0  0  0  0  0  0  0  0  0  0  0  0
    9.1001   -7.8157    0.0000 C   0  0  0  0  0  0  0  0  0  0  0  0
    8.8396   -9.2929    0.0000 C   0  0  0  0  0  0  0  0  0  0  0  0
    7.4300   -9.8060    0.0000 C   0  0  0  0  0  0  0  0  0  0  0  0
    7.1696  -11.2832    0.0000 C   0  0  0  0  0  0  0  0  0  0  0  0
    8.3186  -12.2474    0.0000 C   0  0  0  0  0  0  0  0  0  0  0  0
    8.0582  -13.7246    0.0000 C   0  0  0  0  0  0  0  0  0  0  0  0
    6.6486  -14.2376    0.0000 C   0  0  0  0  0  0  0  0  0  0  0  0
    5.4996  -13.2734    0.0000 C   0  0  0  0  0  0  0  0  0  0  0  0
    5.7600  -11.7962    0.0000 C   0  0  0  0  0  0  0  0  0  0  0  0
    0.0147  -14.6887    0.0000 C   0  0  0  0  0  0  0  0  0  0  0  0
   -1.1344  -15.6529    0.0000 C   0  0  0  0  0  0  0  0  0  0  0  0
   -3.4784  -17.7314    0.0000 O   0  0  0  0  0  0  0  0  0  0  0  0
   -4.2733  -19.0035    0.0000 C   0  0  0  0  0  0  0  0  0  0  0  0
   -5.3153  -20.0825    0.0000 C   0  0  0  0  0  0  0  0  0  0  0  0
   -5.4553  -18.0800    0.0000 C   0  0  0  0  0  0  0  0  0  0  0  0
  1  2  1  0
  2  3  1  0
  2  4  1  0
  4  5  1  0
  5  6  1  0
  6  7  2  0
  7  8  1  0
  8  9  2  0
  9 10  1  0
 10 11  1  0
 11 12  2  0
 11 13  1  0
 13 14  1  0
 14 15  2  0
 15 16  1  0
 16 17  2  0
 17 18  1  0
 18 19  2  0
 11 20  1  0
 20 21  1  0
 21 22  1  0
 22 23  2  0
 23 24  1  0
 24 25  2  0
 25 26  1  0
 26 27  1  0
 27 28  1  0
 28 29  2  0
 28 30  1  0
 30 31  1  0
 31 32  2  0
 32 33  1  0
 33 34  2  0
 34 35  1  0
 35 36  2  0
 28 37  1  0
 37 38  1  0
 38 39  2  0
 39 40  1  0
 40 41  2  0
 41 42  1  0
 42 43  2  0
 26 44  1  0
 44 45  2  0
 44 46  1  0
 46 47  1  0
 47 48  2  0
 48 49  1  0
 49 50  2  0
 50 51  1  0
 51 52  2  0
 52 53  1  0
 53 54  2  0
 54 55  1  0
 55 56  2  0
 56 57  1  0
 57 58  2  0
 25 59  1  0
 59 60  2  0
 21 61  1  0
 61 62  2  0
 61 63  1  0
 63 64  1  0
 64 65  2  0
 65 66  1  0
 66 67  2  0
 67 68  1  0
 68 69  2  0
 69 70  1  0
 70 71  2  0
 71 72  1  0
 72 73  2  0
 73 74  1  0
 74 75  2  0
  9 76  1  0
 76 77  2  0
  5 78  1  0
 78 79  1  0
 79 80  1  0
 79 81  1  0
 79  2  1  0
 77  6  1  0
 19 14  1  0
 60 22  1  0
 75 61  1  0
 36 31  1  0
 43 38  1  0
 58 44  1  0
 69 64  1  0
 75 70  1  0
 52 47  1  0
 58 53  1  0
M  END
>  <Candidate_ID>  (265) 
CAND_R2_265

>  <Candidate_Name>  (265) 
TDCA-DOPO-3-pinacol-boronate

>  <Parent_Seed_ID>  (265) 
TRAIN_137

>  <Parent_Name>  (265) 
TDCA-DOPO-3

>  <Transformation_Code>  (265) 
pinacol_boronate

>  <Design_Family>  (265) 
P-B

>  <Preparation_Type>  (265) 
Additive

>  <Synthesis_Level>  (265) 
B

>  <Parent_Tanimoto_r3>  (265) 
0.7647058823529411

>  <Max_Train_Tanimoto_r3>  (265) 
0.7647058823529411

>  <Risk_Flags>  (265) 
none

$$$$
CAND_R2_266 | TDCA-DOPO-3-trimethoxysilyl
     RDKit          2D

 79 89  0  0  0  0  0  0  0  0999 V2000
   -2.9116  -20.5357    0.0000 C   0  0  0  0  0  0  0  0  0  0  0  0
   -3.1720  -19.0585    0.0000 O   0  0  0  0  0  0  0  0  0  0  0  0
   -2.0230  -18.0943    0.0000 Si  0  0  0  0  0  4  0  0  0  0  0  0
   -2.9871  -16.9453    0.0000 O   0  0  0  0  0  0  0  0  0  0  0  0
   -4.4644  -17.2057    0.0000 C   0  0  0  0  0  0  0  0  0  0  0  0
   -1.0588  -19.2434    0.0000 O   0  0  0  0  0  0  0  0  0  0  0  0
   -1.5718  -20.6529    0.0000 C   0  0  0  0  0  0  0  0  0  0  0  0
   -0.8739  -17.1301    0.0000 C   0  0  0  0  0  0  0  0  0  0  0  0
   -1.1344  -15.6529    0.0000 C   0  0  0  0  0  0  0  0  0  0  0  0
    0.0147  -14.6887    0.0000 C   0  0  0  0  0  0  0  0  0  0  0  0
    1.4242  -15.2018    0.0000 C   0  0  0  0  0  0  0  0  0  0  0  0
    2.5733  -14.2376    0.0000 O   0  0  0  0  0  0  0  0  0  0  0  0
    2.3128  -12.7604    0.0000 P   0  0  0  0  0  0  0  0  0  0  0  0
    0.8356  -13.0209    0.0000 O   0  0  0  0  0  0  0  0  0  0  0  0
    3.7900  -12.4999    0.0000 O   0  0  0  0  0  0  0  0  0  0  0  0
    4.7542  -13.6490    0.0000 C   0  0  0  0  0  0  0  0  0  0  0  0
    4.2412  -15.0585    0.0000 C   0  0  0  0  0  0  0  0  0  0  0  0
    5.2054  -16.2076    0.0000 C   0  0  0  0  0  0  0  0  0  0  0  0
    6.6826  -15.9471    0.0000 C   0  0  0  0  0  0  0  0  0  0  0  0
    7.1956  -14.5376    0.0000 C   0  0  0  0  0  0  0  0  0  0  0  0
    6.2314  -13.3885    0.0000 C   0  0  0  0  0  0  0  0  0  0  0  0
    2.0524  -11.2832    0.0000 O   0  0  0  0  0  0  0  0  0  0  0  0
    3.2014  -10.3190    0.0000 C   0  0  0  0  0  0  0  0  0  0  0  0
    2.9410   -8.8418    0.0000 C   0  0  0  0  0  0  0  0  0  0  0  0
    4.0900   -7.8776    0.0000 C   0  0  0  0  0  0  0  0  0  0  0  0
    3.8296   -6.4004    0.0000 C   0  0  0  0  0  0  0  0  0  0  0  0
    2.4200   -5.8874    0.0000 C   0  0  0  0  0  0  0  0  0  0  0  0
    2.1595   -4.4101    0.0000 C   0  0  0  0  0  0  0  0  0  0  0  0
    3.3086   -3.4460    0.0000 O   0  0  0  0  0  0  0  0  0  0  0  0
    4.7181   -3.9590    0.0000 P   0  0  0  0  0  0  0  0  0  0  0  0
    4.2051   -5.3685    0.0000 O   0  0  0  0  0  0  0  0  0  0  0  0
    5.2312   -2.5495    0.0000 O   0  0  0  0  0  0  0  0  0  0  0  0
    4.2670   -1.4004    0.0000 C   0  0  0  0  0  0  0  0  0  0  0  0
    2.7898   -1.6609    0.0000 C   0  0  0  0  0  0  0  0  0  0  0  0
    1.8256   -0.5118    0.0000 C   0  0  0  0  0  0  0  0  0  0  0  0
    2.3386    0.8977    0.0000 C   0  0  0  0  0  0  0  0  0  0  0  0
    3.8158    1.1582    0.0000 C   0  0  0  0  0  0  0  0  0  0  0  0
    4.7800    0.0092    0.0000 C   0  0  0  0  0  0  0  0  0  0  0  0
    6.1277   -4.4720    0.0000 O   0  0  0  0  0  0  0  0  0  0  0  0
    7.2768   -3.5078    0.0000 C   0  0  0  0  0  0  0  0  0  0  0  0
    7.0163   -2.0306    0.0000 C   0  0  0  0  0  0  0  0  0  0  0  0
    8.1653   -1.0664    0.0000 C   0  0  0  0  0  0  0  0  0  0  0  0
    9.5749   -1.5795    0.0000 C   0  0  0  0  0  0  0  0  0  0  0  0
    9.8354   -3.0567    0.0000 C   0  0  0  0  0  0  0  0  0  0  0  0
    8.6863   -4.0209    0.0000 C   0  0  0  0  0  0  0  0  0  0  0  0
    0.7500   -3.8971    0.0000 P   0  0  0  0  0  0  0  0  0  0  0  0
    1.5000   -2.5981    0.0000 O   0  0  0  0  0  0  0  0  0  0  0  0
    0.4895   -5.3743    0.0000 O   0  0  0  0  0  0  0  0  0  0  0  0
   -0.9200   -5.8874    0.0000 C   0  0  0  0  0  0  0  0  0  0  0  0
   -1.1805   -7.3646    0.0000 C   0  0  0  0  0  0  0  0  0  0  0  0
   -2.5900   -7.8776    0.0000 C   0  0  0  0  0  0  0  0  0  0  0  0
   -3.7391   -6.9134    0.0000 C   0  0  0  0  0  0  0  0  0  0  0  0
   -3.4786   -5.4362    0.0000 C   0  0  0  0  0  0  0  0  0  0  0  0
   -2.0691   -4.9232    0.0000 C   0  0  0  0  0  0  0  0  0  0  0  0
   -1.8086   -3.4460    0.0000 C   0  0  0  0  0  0  0  0  0  0  0  0
   -2.9577   -2.4818    0.0000 C   0  0  0  0  0  0  0  0  0  0  0  0
   -2.6972   -1.0046    0.0000 C   0  0  0  0  0  0  0  0  0  0  0  0
   -1.2877   -0.4915    0.0000 C   0  0  0  0  0  0  0  0  0  0  0  0
   -0.1386   -1.4557    0.0000 C   0  0  0  0  0  0  0  0  0  0  0  0
   -0.3991   -2.9329    0.0000 C   0  0  0  0  0  0  0  0  0  0  0  0
    1.2709   -6.8515    0.0000 C   0  0  0  0  0  0  0  0  0  0  0  0
    1.5314   -8.3287    0.0000 C   0  0  0  0  0  0  0  0  0  0  0  0
    4.6110  -10.8320    0.0000 P   0  0  0  0  0  0  0  0  0  0  0  0
    4.3913  -11.5983    0.0000 O   0  0  0  0  0  0  0  0  0  0  0  0
    4.8714   -9.3548    0.0000 O   0  0  0  0  0  0  0  0  0  0  0  0
    6.2810   -8.8418    0.0000 C   0  0  0  0  0  0  0  0  0  0  0  0
    6.5415   -7.3646    0.0000 C   0  0  0  0  0  0  0  0  0  0  0  0
    7.9510   -6.8515    0.0000 C   0  0  0  0  0  0  0  0  0  0  0  0
    9.1001   -7.8157    0.0000 C   0  0  0  0  0  0  0  0  0  0  0  0
    8.8396   -9.2929    0.0000 C   0  0  0  0  0  0  0  0  0  0  0  0
    7.4300   -9.8060    0.0000 C   0  0  0  0  0  0  0  0  0  0  0  0
    7.1696  -11.2832    0.0000 C   0  0  0  0  0  0  0  0  0  0  0  0
    8.3186  -12.2474    0.0000 C   0  0  0  0  0  0  0  0  0  0  0  0
    8.0582  -13.7246    0.0000 C   0  0  0  0  0  0  0  0  0  0  0  0
    6.6486  -14.2376    0.0000 C   0  0  0  0  0  0  0  0  0  0  0  0
    5.4996  -13.2734    0.0000 C   0  0  0  0  0  0  0  0  0  0  0  0
    5.7600  -11.7962    0.0000 C   0  0  0  0  0  0  0  0  0  0  0  0
    1.6847  -16.6790    0.0000 C   0  0  0  0  0  0  0  0  0  0  0  0
    0.5356  -17.6432    0.0000 C   0  0  0  0  0  0  0  0  0  0  0  0
  1  2  1  0
  2  3  1  0
  3  4  1  0
  4  5  1  0
  3  6  1  0
  6  7  1  0
  3  8  1  0
  8  9  2  0
  9 10  1  0
 10 11  2  0
 11 12  1  0
 12 13  1  0
 13 14  2  0
 13 15  1  0
 15 16  1  0
 16 17  2  0
 17 18  1  0
 18 19  2  0
 19 20  1  0
 20 21  2  0
 13 22  1  0
 22 23  1  0
 23 24  1  0
 24 25  2  0
 25 26  1  0
 26 27  2  0
 27 28  1  0
 28 29  1  0
 29 30  1  0
 30 31  2  0
 30 32  1  0
 32 33  1  0
 33 34  2  0
 34 35  1  0
 35 36  2  0
 36 37  1  0
 37 38  2  0
 30 39  1  0
 39 40  1  0
 40 41  2  0
 41 42  1  0
 42 43  2  0
 43 44  1  0
 44 45  2  0
 28 46  1  0
 46 47  2  0
 46 48  1  0
 48 49  1  0
 49 50  2  0
 50 51  1  0
 51 52  2  0
 52 53  1  0
 53 54  2  0
 54 55  1  0
 55 56  2  0
 56 57  1  0
 57 58  2  0
 58 59  1  0
 59 60  2  0
 27 61  1  0
 61 62  2  0
 23 63  1  0
 63 64  2  0
 63 65  1  0
 65 66  1  0
 66 67  2  0
 67 68  1  0
 68 69  2  0
 69 70  1  0
 70 71  2  0
 71 72  1  0
 72 73  2  0
 73 74  1  0
 74 75  2  0
 75 76  1  0
 76 77  2  0
 11 78  1  0
 78 79  2  0
 79  8  1  0
 21 16  1  0
 62 24  1  0
 77 63  1  0
 38 33  1  0
 45 40  1  0
 60 46  1  0
 71 66  1  0
 77 72  1  0
 54 49  1  0
 60 55  1  0
M  END
>  <Candidate_ID>  (266) 
CAND_R2_266

>  <Candidate_Name>  (266) 
TDCA-DOPO-3-trimethoxysilyl

>  <Parent_Seed_ID>  (266) 
TRAIN_137

>  <Parent_Name>  (266) 
TDCA-DOPO-3

>  <Transformation_Code>  (266) 
trimethoxysilyl

>  <Design_Family>  (266) 
P-Si

>  <Preparation_Type>  (266) 
Additive + Secondary Crosslinking

>  <Synthesis_Level>  (266) 
B

>  <Parent_Tanimoto_r3>  (266) 
0.8024691358024691

>  <Max_Train_Tanimoto_r3>  (266) 
0.8024691358024691

>  <Risk_Flags>  (266) 
none

$$$$
CAND_R2_267 | TDCA-DOPO-3-triethoxysilyl
     RDKit          2D

 82 92  0  0  0  0  0  0  0  0999 V2000
   -4.0606  -21.4999    0.0000 C   0  0  0  0  0  0  0  0  0  0  0  0
   -2.9116  -20.5357    0.0000 C   0  0  0  0  0  0  0  0  0  0  0  0
   -3.1720  -19.0585    0.0000 O   0  0  0  0  0  0  0  0  0  0  0  0
   -2.0230  -18.0943    0.0000 Si  0  0  0  0  0  4  0  0  0  0  0  0
   -2.9871  -16.9453    0.0000 O   0  0  0  0  0  0  0  0  0  0  0  0
   -4.4644  -17.2057    0.0000 C   0  0  0  0  0  0  0  0  0  0  0  0
   -5.4285  -16.0567    0.0000 C   0  0  0  0  0  0  0  0  0  0  0  0
   -1.0588  -19.2434    0.0000 O   0  0  0  0  0  0  0  0  0  0  0  0
   -1.5718  -20.6529    0.0000 C   0  0  0  0  0  0  0  0  0  0  0  0
   -0.6076  -21.8020    0.0000 C   0  0  0  0  0  0  0  0  0  0  0  0
   -0.8739  -17.1301    0.0000 C   0  0  0  0  0  0  0  0  0  0  0  0
   -1.1344  -15.6529    0.0000 C   0  0  0  0  0  0  0  0  0  0  0  0
    0.0147  -14.6887    0.0000 C   0  0  0  0  0  0  0  0  0  0  0  0
    1.4242  -15.2018    0.0000 C   0  0  0  0  0  0  0  0  0  0  0  0
    2.5733  -14.2376    0.0000 O   0  0  0  0  0  0  0  0  0  0  0  0
    2.3128  -12.7604    0.0000 P   0  0  0  0  0  0  0  0  0  0  0  0
    0.8356  -13.0209    0.0000 O   0  0  0  0  0  0  0  0  0  0  0  0
    3.7900  -12.4999    0.0000 O   0  0  0  0  0  0  0  0  0  0  0  0
    4.7542  -13.6490    0.0000 C   0  0  0  0  0  0  0  0  0  0  0  0
    4.2412  -15.0585    0.0000 C   0  0  0  0  0  0  0  0  0  0  0  0
    5.2054  -16.2076    0.0000 C   0  0  0  0  0  0  0  0  0  0  0  0
    6.6826  -15.9471    0.0000 C   0  0  0  0  0  0  0  0  0  0  0  0
    7.1956  -14.5376    0.0000 C   0  0  0  0  0  0  0  0  0  0  0  0
    6.2314  -13.3885    0.0000 C   0  0  0  0  0  0  0  0  0  0  0  0
    2.0524  -11.2832    0.0000 O   0  0  0  0  0  0  0  0  0  0  0  0
    3.2014  -10.3190    0.0000 C   0  0  0  0  0  0  0  0  0  0  0  0
    2.9410   -8.8418    0.0000 C   0  0  0  0  0  0  0  0  0  0  0  0
    4.0900   -7.8776    0.0000 C   0  0  0  0  0  0  0  0  0  0  0  0
    3.8296   -6.4004    0.0000 C   0  0  0  0  0  0  0  0  0  0  0  0
    2.4200   -5.8874    0.0000 C   0  0  0  0  0  0  0  0  0  0  0  0
    2.1595   -4.4101    0.0000 C   0  0  0  0  0  0  0  0  0  0  0  0
    3.3086   -3.4460    0.0000 O   0  0  0  0  0  0  0  0  0  0  0  0
    4.7181   -3.9590    0.0000 P   0  0  0  0  0  0  0  0  0  0  0  0
    4.2051   -5.3685    0.0000 O   0  0  0  0  0  0  0  0  0  0  0  0
    5.2312   -2.5495    0.0000 O   0  0  0  0  0  0  0  0  0  0  0  0
    4.2670   -1.4004    0.0000 C   0  0  0  0  0  0  0  0  0  0  0  0
    2.7898   -1.6609    0.0000 C   0  0  0  0  0  0  0  0  0  0  0  0
    1.8256   -0.5118    0.0000 C   0  0  0  0  0  0  0  0  0  0  0  0
    2.3386    0.8977    0.0000 C   0  0  0  0  0  0  0  0  0  0  0  0
    3.8158    1.1582    0.0000 C   0  0  0  0  0  0  0  0  0  0  0  0
    4.7800    0.0092    0.0000 C   0  0  0  0  0  0  0  0  0  0  0  0
    6.1277   -4.4720    0.0000 O   0  0  0  0  0  0  0  0  0  0  0  0
    7.2768   -3.5078    0.0000 C   0  0  0  0  0  0  0  0  0  0  0  0
    7.0163   -2.0306    0.0000 C   0  0  0  0  0  0  0  0  0  0  0  0
    8.1653   -1.0664    0.0000 C   0  0  0  0  0  0  0  0  0  0  0  0
    9.5749   -1.5795    0.0000 C   0  0  0  0  0  0  0  0  0  0  0  0
    9.8354   -3.0567    0.0000 C   0  0  0  0  0  0  0  0  0  0  0  0
    8.6863   -4.0209    0.0000 C   0  0  0  0  0  0  0  0  0  0  0  0
    0.7500   -3.8971    0.0000 P   0  0  0  0  0  0  0  0  0  0  0  0
    1.5000   -2.5981    0.0000 O   0  0  0  0  0  0  0  0  0  0  0  0
    0.4895   -5.3743    0.0000 O   0  0  0  0  0  0  0  0  0  0  0  0
   -0.9200   -5.8874    0.0000 C   0  0  0  0  0  0  0  0  0  0  0  0
   -1.1805   -7.3646    0.0000 C   0  0  0  0  0  0  0  0  0  0  0  0
   -2.5900   -7.8776    0.0000 C   0  0  0  0  0  0  0  0  0  0  0  0
   -3.7391   -6.9134    0.0000 C   0  0  0  0  0  0  0  0  0  0  0  0
   -3.4786   -5.4362    0.0000 C   0  0  0  0  0  0  0  0  0  0  0  0
   -2.0691   -4.9232    0.0000 C   0  0  0  0  0  0  0  0  0  0  0  0
   -1.8086   -3.4460    0.0000 C   0  0  0  0  0  0  0  0  0  0  0  0
   -2.9577   -2.4818    0.0000 C   0  0  0  0  0  0  0  0  0  0  0  0
   -2.6972   -1.0046    0.0000 C   0  0  0  0  0  0  0  0  0  0  0  0
   -1.2877   -0.4915    0.0000 C   0  0  0  0  0  0  0  0  0  0  0  0
   -0.1386   -1.4557    0.0000 C   0  0  0  0  0  0  0  0  0  0  0  0
   -0.3991   -2.9329    0.0000 C   0  0  0  0  0  0  0  0  0  0  0  0
    1.2709   -6.8515    0.0000 C   0  0  0  0  0  0  0  0  0  0  0  0
    1.5314   -8.3287    0.0000 C   0  0  0  0  0  0  0  0  0  0  0  0
    4.6110  -10.8320    0.0000 P   0  0  0  0  0  0  0  0  0  0  0  0
    4.3913  -11.5983    0.0000 O   0  0  0  0  0  0  0  0  0  0  0  0
    4.8714   -9.3548    0.0000 O   0  0  0  0  0  0  0  0  0  0  0  0
    6.2810   -8.8418    0.0000 C   0  0  0  0  0  0  0  0  0  0  0  0
    6.5415   -7.3646    0.0000 C   0  0  0  0  0  0  0  0  0  0  0  0
    7.9510   -6.8515    0.0000 C   0  0  0  0  0  0  0  0  0  0  0  0
    9.1001   -7.8157    0.0000 C   0  0  0  0  0  0  0  0  0  0  0  0
    8.8396   -9.2929    0.0000 C   0  0  0  0  0  0  0  0  0  0  0  0
    7.4300   -9.8060    0.0000 C   0  0  0  0  0  0  0  0  0  0  0  0
    7.1696  -11.2832    0.0000 C   0  0  0  0  0  0  0  0  0  0  0  0
    8.3186  -12.2474    0.0000 C   0  0  0  0  0  0  0  0  0  0  0  0
    8.0582  -13.7246    0.0000 C   0  0  0  0  0  0  0  0  0  0  0  0
    6.6486  -14.2376    0.0000 C   0  0  0  0  0  0  0  0  0  0  0  0
    5.4996  -13.2734    0.0000 C   0  0  0  0  0  0  0  0  0  0  0  0
    5.7600  -11.7962    0.0000 C   0  0  0  0  0  0  0  0  0  0  0  0
    1.6847  -16.6790    0.0000 C   0  0  0  0  0  0  0  0  0  0  0  0
    0.5356  -17.6432    0.0000 C   0  0  0  0  0  0  0  0  0  0  0  0
  1  2  1  0
  2  3  1  0
  3  4  1  0
  4  5  1  0
  5  6  1  0
  6  7  1  0
  4  8  1  0
  8  9  1  0
  9 10  1  0
  4 11  1  0
 11 12  2  0
 12 13  1  0
 13 14  2  0
 14 15  1  0
 15 16  1  0
 16 17  2  0
 16 18  1  0
 18 19  1  0
 19 20  2  0
 20 21  1  0
 21 22  2  0
 22 23  1  0
 23 24  2  0
 16 25  1  0
 25 26  1  0
 26 27  1  0
 27 28  2  0
 28 29  1  0
 29 30  2  0
 30 31  1  0
 31 32  1  0
 32 33  1  0
 33 34  2  0
 33 35  1  0
 35 36  1  0
 36 37  2  0
 37 38  1  0
 38 39  2  0
 39 40  1  0
 40 41  2  0
 33 42  1  0
 42 43  1  0
 43 44  2  0
 44 45  1  0
 45 46  2  0
 46 47  1  0
 47 48  2  0
 31 49  1  0
 49 50  2  0
 49 51  1  0
 51 52  1  0
 52 53  2  0
 53 54  1  0
 54 55  2  0
 55 56  1  0
 56 57  2  0
 57 58  1  0
 58 59  2  0
 59 60  1  0
 60 61  2  0
 61 62  1  0
 62 63  2  0
 30 64  1  0
 64 65  2  0
 26 66  1  0
 66 67  2  0
 66 68  1  0
 68 69  1  0
 69 70  2  0
 70 71  1  0
 71 72  2  0
 72 73  1  0
 73 74  2  0
 74 75  1  0
 75 76  2  0
 76 77  1  0
 77 78  2  0
 78 79  1  0
 79 80  2  0
 14 81  1  0
 81 82  2  0
 82 11  1  0
 24 19  1  0
 65 27  1  0
 80 66  1  0
 41 36  1  0
 48 43  1  0
 63 49  1  0
 74 69  1  0
 80 75  1  0
 57 52  1  0
 63 58  1  0
M  END
>  <Candidate_ID>  (267) 
CAND_R2_267

>  <Candidate_Name>  (267) 
TDCA-DOPO-3-triethoxysilyl

>  <Parent_Seed_ID>  (267) 
TRAIN_137

>  <Parent_Name>  (267) 
TDCA-DOPO-3

>  <Transformation_Code>  (267) 
triethoxysilyl

>  <Design_Family>  (267) 
P-Si

>  <Preparation_Type>  (267) 
Additive + Secondary Crosslinking

>  <Synthesis_Level>  (267) 
B

>  <Parent_Tanimoto_r3>  (267) 
0.7647058823529411

>  <Max_Train_Tanimoto_r3>  (267) 
0.7647058823529411

>  <Risk_Flags>  (267) 
none

$$$$
CAND_R2_268 | TDCA-DOPO-3-disiloxane
     RDKit          2D

 80 90  0  0  0  0  0  0  0  0999 V2000
   -4.3888  -20.7962    0.0000 C   0  0  0  0  0  0  0  0  0  0  0  0
   -2.9116  -20.5357    0.0000 Si  0  0  0  0  0  4  0  0  0  0  0  0
   -1.4343  -20.2752    0.0000 C   0  0  0  0  0  0  0  0  0  0  0  0
   -2.6511  -22.0129    0.0000 C   0  0  0  0  0  0  0  0  0  0  0  0
   -3.1720  -19.0585    0.0000 O   0  0  0  0  0  0  0  0  0  0  0  0
   -2.0230  -18.0943    0.0000 Si  0  0  0  0  0  4  0  0  0  0  0  0
   -1.0588  -19.2434    0.0000 C   0  0  0  0  0  0  0  0  0  0  0  0
   -2.9871  -16.9453    0.0000 C   0  0  0  0  0  0  0  0  0  0  0  0
   -0.8739  -17.1301    0.0000 C   0  0  0  0  0  0  0  0  0  0  0  0
   -1.1344  -15.6529    0.0000 C   0  0  0  0  0  0  0  0  0  0  0  0
    0.0147  -14.6887    0.0000 C   0  0  0  0  0  0  0  0  0  0  0  0
    1.4242  -15.2018    0.0000 C   0  0  0  0  0  0  0  0  0  0  0  0
    2.5733  -14.2376    0.0000 O   0  0  0  0  0  0  0  0  0  0  0  0
    2.3128  -12.7604    0.0000 P   0  0  0  0  0  0  0  0  0  0  0  0
    0.8356  -13.0209    0.0000 O   0  0  0  0  0  0  0  0  0  0  0  0
    3.7900  -12.4999    0.0000 O   0  0  0  0  0  0  0  0  0  0  0  0
    4.7542  -13.6490    0.0000 C   0  0  0  0  0  0  0  0  0  0  0  0
    4.2412  -15.0585    0.0000 C   0  0  0  0  0  0  0  0  0  0  0  0
    5.2054  -16.2076    0.0000 C   0  0  0  0  0  0  0  0  0  0  0  0
    6.6826  -15.9471    0.0000 C   0  0  0  0  0  0  0  0  0  0  0  0
    7.1956  -14.5376    0.0000 C   0  0  0  0  0  0  0  0  0  0  0  0
    6.2314  -13.3885    0.0000 C   0  0  0  0  0  0  0  0  0  0  0  0
    2.0524  -11.2832    0.0000 O   0  0  0  0  0  0  0  0  0  0  0  0
    3.2014  -10.3190    0.0000 C   0  0  0  0  0  0  0  0  0  0  0  0
    2.9410   -8.8418    0.0000 C   0  0  0  0  0  0  0  0  0  0  0  0
    4.0900   -7.8776    0.0000 C   0  0  0  0  0  0  0  0  0  0  0  0
    3.8296   -6.4004    0.0000 C   0  0  0  0  0  0  0  0  0  0  0  0
    2.4200   -5.8874    0.0000 C   0  0  0  0  0  0  0  0  0  0  0  0
    2.1595   -4.4101    0.0000 C   0  0  0  0  0  0  0  0  0  0  0  0
    3.3086   -3.4460    0.0000 O   0  0  0  0  0  0  0  0  0  0  0  0
    4.7181   -3.9590    0.0000 P   0  0  0  0  0  0  0  0  0  0  0  0
    4.2051   -5.3685    0.0000 O   0  0  0  0  0  0  0  0  0  0  0  0
    5.2312   -2.5495    0.0000 O   0  0  0  0  0  0  0  0  0  0  0  0
    4.2670   -1.4004    0.0000 C   0  0  0  0  0  0  0  0  0  0  0  0
    2.7898   -1.6609    0.0000 C   0  0  0  0  0  0  0  0  0  0  0  0
    1.8256   -0.5118    0.0000 C   0  0  0  0  0  0  0  0  0  0  0  0
    2.3386    0.8977    0.0000 C   0  0  0  0  0  0  0  0  0  0  0  0
    3.8158    1.1582    0.0000 C   0  0  0  0  0  0  0  0  0  0  0  0
    4.7800    0.0092    0.0000 C   0  0  0  0  0  0  0  0  0  0  0  0
    6.1277   -4.4720    0.0000 O   0  0  0  0  0  0  0  0  0  0  0  0
    7.2768   -3.5078    0.0000 C   0  0  0  0  0  0  0  0  0  0  0  0
    7.0163   -2.0306    0.0000 C   0  0  0  0  0  0  0  0  0  0  0  0
    8.1653   -1.0664    0.0000 C   0  0  0  0  0  0  0  0  0  0  0  0
    9.5749   -1.5795    0.0000 C   0  0  0  0  0  0  0  0  0  0  0  0
    9.8354   -3.0567    0.0000 C   0  0  0  0  0  0  0  0  0  0  0  0
    8.6863   -4.0209    0.0000 C   0  0  0  0  0  0  0  0  0  0  0  0
    0.7500   -3.8971    0.0000 P   0  0  0  0  0  0  0  0  0  0  0  0
    1.5000   -2.5981    0.0000 O   0  0  0  0  0  0  0  0  0  0  0  0
    0.4895   -5.3743    0.0000 O   0  0  0  0  0  0  0  0  0  0  0  0
   -0.9200   -5.8874    0.0000 C   0  0  0  0  0  0  0  0  0  0  0  0
   -1.1805   -7.3646    0.0000 C   0  0  0  0  0  0  0  0  0  0  0  0
   -2.5900   -7.8776    0.0000 C   0  0  0  0  0  0  0  0  0  0  0  0
   -3.7391   -6.9134    0.0000 C   0  0  0  0  0  0  0  0  0  0  0  0
   -3.4786   -5.4362    0.0000 C   0  0  0  0  0  0  0  0  0  0  0  0
   -2.0691   -4.9232    0.0000 C   0  0  0  0  0  0  0  0  0  0  0  0
   -1.8086   -3.4460    0.0000 C   0  0  0  0  0  0  0  0  0  0  0  0
   -2.9577   -2.4818    0.0000 C   0  0  0  0  0  0  0  0  0  0  0  0
   -2.6972   -1.0046    0.0000 C   0  0  0  0  0  0  0  0  0  0  0  0
   -1.2877   -0.4915    0.0000 C   0  0  0  0  0  0  0  0  0  0  0  0
   -0.1386   -1.4557    0.0000 C   0  0  0  0  0  0  0  0  0  0  0  0
   -0.3991   -2.9329    0.0000 C   0  0  0  0  0  0  0  0  0  0  0  0
    1.2709   -6.8515    0.0000 C   0  0  0  0  0  0  0  0  0  0  0  0
    1.5314   -8.3287    0.0000 C   0  0  0  0  0  0  0  0  0  0  0  0
    4.6110  -10.8320    0.0000 P   0  0  0  0  0  0  0  0  0  0  0  0
    4.3913  -11.5983    0.0000 O   0  0  0  0  0  0  0  0  0  0  0  0
    4.8714   -9.3548    0.0000 O   0  0  0  0  0  0  0  0  0  0  0  0
    6.2810   -8.8418    0.0000 C   0  0  0  0  0  0  0  0  0  0  0  0
    6.5415   -7.3646    0.0000 C   0  0  0  0  0  0  0  0  0  0  0  0
    7.9510   -6.8515    0.0000 C   0  0  0  0  0  0  0  0  0  0  0  0
    9.1001   -7.8157    0.0000 C   0  0  0  0  0  0  0  0  0  0  0  0
    8.8396   -9.2929    0.0000 C   0  0  0  0  0  0  0  0  0  0  0  0
    7.4300   -9.8060    0.0000 C   0  0  0  0  0  0  0  0  0  0  0  0
    7.1696  -11.2832    0.0000 C   0  0  0  0  0  0  0  0  0  0  0  0
    8.3186  -12.2474    0.0000 C   0  0  0  0  0  0  0  0  0  0  0  0
    8.0582  -13.7246    0.0000 C   0  0  0  0  0  0  0  0  0  0  0  0
    6.6486  -14.2376    0.0000 C   0  0  0  0  0  0  0  0  0  0  0  0
    5.4996  -13.2734    0.0000 C   0  0  0  0  0  0  0  0  0  0  0  0
    5.7600  -11.7962    0.0000 C   0  0  0  0  0  0  0  0  0  0  0  0
    1.6847  -16.6790    0.0000 C   0  0  0  0  0  0  0  0  0  0  0  0
    0.5356  -17.6432    0.0000 C   0  0  0  0  0  0  0  0  0  0  0  0
  1  2  1  0
  2  3  1  0
  2  4  1  0
  2  5  1  0
  5  6  1  0
  6  7  1  0
  6  8  1  0
  6  9  1  0
  9 10  2  0
 10 11  1  0
 11 12  2  0
 12 13  1  0
 13 14  1  0
 14 15  2  0
 14 16  1  0
 16 17  1  0
 17 18  2  0
 18 19  1  0
 19 20  2  0
 20 21  1  0
 21 22  2  0
 14 23  1  0
 23 24  1  0
 24 25  1  0
 25 26  2  0
 26 27  1  0
 27 28  2  0
 28 29  1  0
 29 30  1  0
 30 31  1  0
 31 32  2  0
 31 33  1  0
 33 34  1  0
 34 35  2  0
 35 36  1  0
 36 37  2  0
 37 38  1  0
 38 39  2  0
 31 40  1  0
 40 41  1  0
 41 42  2  0
 42 43  1  0
 43 44  2  0
 44 45  1  0
 45 46  2  0
 29 47  1  0
 47 48  2  0
 47 49  1  0
 49 50  1  0
 50 51  2  0
 51 52  1  0
 52 53  2  0
 53 54  1  0
 54 55  2  0
 55 56  1  0
 56 57  2  0
 57 58  1  0
 58 59  2  0
 59 60  1  0
 60 61  2  0
 28 62  1  0
 62 63  2  0
 24 64  1  0
 64 65  2  0
 64 66  1  0
 66 67  1  0
 67 68  2  0
 68 69  1  0
 69 70  2  0
 70 71  1  0
 71 72  2  0
 72 73  1  0
 73 74  2  0
 74 75  1  0
 75 76  2  0
 76 77  1  0
 77 78  2  0
 12 79  1  0
 79 80  2  0
 80  9  1  0
 22 17  1  0
 63 25  1  0
 78 64  1  0
 39 34  1  0
 46 41  1  0
 61 47  1  0
 72 67  1  0
 78 73  1  0
 55 50  1  0
 61 56  1  0
M  END
>  <Candidate_ID>  (268) 
CAND_R2_268

>  <Candidate_Name>  (268) 
TDCA-DOPO-3-disiloxane

>  <Parent_Seed_ID>  (268) 
TRAIN_137

>  <Parent_Name>  (268) 
TDCA-DOPO-3

>  <Transformation_Code>  (268) 
disiloxane

>  <Design_Family>  (268) 
P-Si

>  <Preparation_Type>  (268) 
Additive

>  <Synthesis_Level>  (268) 
B

>  <Parent_Tanimoto_r3>  (268) 
0.7831325301204819

>  <Max_Train_Tanimoto_r3>  (268) 
0.7831325301204819

>  <Risk_Flags>  (268) 
none

$$$$
CAND_R2_269 | TDCA-DOPO-3-glycidyloxy
     RDKit          2D

 77 88  0  0  0  0  0  0  0  0999 V2000
    0.8356  -13.0209    0.0000 O   0  0  0  0  0  0  0  0  0  0  0  0
    2.3128  -12.7604    0.0000 P   0  0  0  0  0  0  0  0  0  0  0  0
    3.7900  -12.4999    0.0000 O   0  0  0  0  0  0  0  0  0  0  0  0
    4.7542  -13.6490    0.0000 C   0  0  0  0  0  0  0  0  0  0  0  0
    4.2412  -15.0585    0.0000 C   0  0  0  0  0  0  0  0  0  0  0  0
    5.2054  -16.2076    0.0000 C   0  0  0  0  0  0  0  0  0  0  0  0
    6.6826  -15.9471    0.0000 C   0  0  0  0  0  0  0  0  0  0  0  0
    7.1956  -14.5376    0.0000 C   0  0  0  0  0  0  0  0  0  0  0  0
    6.2314  -13.3885    0.0000 C   0  0  0  0  0  0  0  0  0  0  0  0
    2.5733  -14.2376    0.0000 O   0  0  0  0  0  0  0  0  0  0  0  0
    1.4242  -15.2018    0.0000 C   0  0  0  0  0  0  0  0  0  0  0  0
    0.0147  -14.6887    0.0000 C   0  0  0  0  0  0  0  0  0  0  0  0
   -1.1344  -15.6529    0.0000 C   0  0  0  0  0  0  0  0  0  0  0  0
   -0.8739  -17.1301    0.0000 C   0  0  0  0  0  0  0  0  0  0  0  0
    0.5356  -17.6432    0.0000 C   0  0  0  0  0  0  0  0  0  0  0  0
    1.6847  -16.6790    0.0000 C   0  0  0  0  0  0  0  0  0  0  0  0
    2.0524  -11.2832    0.0000 O   0  0  0  0  0  0  0  0  0  0  0  0
    3.2014  -10.3190    0.0000 C   0  0  0  0  0  0  0  0  0  0  0  0
    2.9410   -8.8418    0.0000 C   0  0  0  0  0  0  0  0  0  0  0  0
    4.0900   -7.8776    0.0000 C   0  0  0  0  0  0  0  0  0  0  0  0
    3.8296   -6.4004    0.0000 C   0  0  0  0  0  0  0  0  0  0  0  0
    2.4200   -5.8874    0.0000 C   0  0  0  0  0  0  0  0  0  0  0  0
    2.1595   -4.4101    0.0000 C   0  0  0  0  0  0  0  0  0  0  0  0
    3.3086   -3.4460    0.0000 O   0  0  0  0  0  0  0  0  0  0  0  0
    4.7181   -3.9590    0.0000 P   0  0  0  0  0  0  0  0  0  0  0  0
    4.2051   -5.3685    0.0000 O   0  0  0  0  0  0  0  0  0  0  0  0
    5.2312   -2.5495    0.0000 O   0  0  0  0  0  0  0  0  0  0  0  0
    4.2670   -1.4004    0.0000 C   0  0  0  0  0  0  0  0  0  0  0  0
    2.7898   -1.6609    0.0000 C   0  0  0  0  0  0  0  0  0  0  0  0
    1.8256   -0.5118    0.0000 C   0  0  0  0  0  0  0  0  0  0  0  0
    2.3386    0.8977    0.0000 C   0  0  0  0  0  0  0  0  0  0  0  0
    3.8158    1.1582    0.0000 C   0  0  0  0  0  0  0  0  0  0  0  0
    4.7800    0.0092    0.0000 C   0  0  0  0  0  0  0  0  0  0  0  0
    6.1277   -4.4720    0.0000 O   0  0  0  0  0  0  0  0  0  0  0  0
    7.2768   -3.5078    0.0000 C   0  0  0  0  0  0  0  0  0  0  0  0
    7.0163   -2.0306    0.0000 C   0  0  0  0  0  0  0  0  0  0  0  0
    8.1653   -1.0664    0.0000 C   0  0  0  0  0  0  0  0  0  0  0  0
    9.5749   -1.5795    0.0000 C   0  0  0  0  0  0  0  0  0  0  0  0
   10.7240   -0.6153    0.0000 O   0  0  0  0  0  0  0  0  0  0  0  0
   12.1335   -1.1283    0.0000 C   0  0  0  0  0  0  0  0  0  0  0  0
   13.2826   -0.1641    0.0000 C   0  0  0  0  0  0  0  0  0  0  0  0
   14.7598    0.0963    0.0000 C   0  0  0  0  0  0  0  0  0  0  0  0
   13.7956    1.2454    0.0000 O   0  0  0  0  0  0  0  0  0  0  0  0
    9.8354   -3.0567    0.0000 C   0  0  0  0  0  0  0  0  0  0  0  0
    8.6863   -4.0209    0.0000 C   0  0  0  0  0  0  0  0  0  0  0  0
    0.7500   -3.8971    0.0000 P   0  0  0  0  0  0  0  0  0  0  0  0
    1.5000   -2.5981    0.0000 O   0  0  0  0  0  0  0  0  0  0  0  0
    0.4895   -5.3743    0.0000 O   0  0  0  0  0  0  0  0  0  0  0  0
   -0.9200   -5.8874    0.0000 C   0  0  0  0  0  0  0  0  0  0  0  0
   -1.1805   -7.3646    0.0000 C   0  0  0  0  0  0  0  0  0  0  0  0
   -2.5900   -7.8776    0.0000 C   0  0  0  0  0  0  0  0  0  0  0  0
   -3.7391   -6.9134    0.0000 C   0  0  0  0  0  0  0  0  0  0  0  0
   -3.4786   -5.4362    0.0000 C   0  0  0  0  0  0  0  0  0  0  0  0
   -2.0691   -4.9232    0.0000 C   0  0  0  0  0  0  0  0  0  0  0  0
   -1.8086   -3.4460    0.0000 C   0  0  0  0  0  0  0  0  0  0  0  0
   -2.9577   -2.4818    0.0000 C   0  0  0  0  0  0  0  0  0  0  0  0
   -2.6972   -1.0046    0.0000 C   0  0  0  0  0  0  0  0  0  0  0  0
   -1.2877   -0.4915    0.0000 C   0  0  0  0  0  0  0  0  0  0  0  0
   -0.1386   -1.4557    0.0000 C   0  0  0  0  0  0  0  0  0  0  0  0
   -0.3991   -2.9329    0.0000 C   0  0  0  0  0  0  0  0  0  0  0  0
    1.2709   -6.8515    0.0000 C   0  0  0  0  0  0  0  0  0  0  0  0
    1.5314   -8.3287    0.0000 C   0  0  0  0  0  0  0  0  0  0  0  0
    4.6110  -10.8320    0.0000 P   0  0  0  0  0  0  0  0  0  0  0  0
    4.3913  -11.5983    0.0000 O   0  0  0  0  0  0  0  0  0  0  0  0
    4.8714   -9.3548    0.0000 O   0  0  0  0  0  0  0  0  0  0  0  0
    6.2810   -8.8418    0.0000 C   0  0  0  0  0  0  0  0  0  0  0  0
    6.5415   -7.3646    0.0000 C   0  0  0  0  0  0  0  0  0  0  0  0
    7.9510   -6.8515    0.0000 C   0  0  0  0  0  0  0  0  0  0  0  0
    9.1001   -7.8157    0.0000 C   0  0  0  0  0  0  0  0  0  0  0  0
    8.8396   -9.2929    0.0000 C   0  0  0  0  0  0  0  0  0  0  0  0
    7.4300   -9.8060    0.0000 C   0  0  0  0  0  0  0  0  0  0  0  0
    7.1696  -11.2832    0.0000 C   0  0  0  0  0  0  0  0  0  0  0  0
    8.3186  -12.2474    0.0000 C   0  0  0  0  0  0  0  0  0  0  0  0
    8.0582  -13.7246    0.0000 C   0  0  0  0  0  0  0  0  0  0  0  0
    6.6486  -14.2376    0.0000 C   0  0  0  0  0  0  0  0  0  0  0  0
    5.4996  -13.2734    0.0000 C   0  0  0  0  0  0  0  0  0  0  0  0
    5.7600  -11.7962    0.0000 C   0  0  0  0  0  0  0  0  0  0  0  0
  1  2  2  0
  2  3  1  0
  3  4  1  0
  4  5  2  0
  5  6  1  0
  6  7  2  0
  7  8  1  0
  8  9  2  0
  2 10  1  0
 10 11  1  0
 11 12  2  0
 12 13  1  0
 13 14  2  0
 14 15  1  0
 15 16  2  0
  2 17  1  0
 17 18  1  0
 18 19  1  0
 19 20  2  0
 20 21  1  0
 21 22  2  0
 22 23  1  0
 23 24  1  0
 24 25  1  0
 25 26  2  0
 25 27  1  0
 27 28  1  0
 28 29  2  0
 29 30  1  0
 30 31  2  0
 31 32  1  0
 32 33  2  0
 25 34  1  0
 34 35  1  0
 35 36  2  0
 36 37  1  0
 37 38  2  0
 38 39  1  0
 39 40  1  0
 40 41  1  0
 41 42  1  0
 42 43  1  0
 38 44  1  0
 44 45  2  0
 23 46  1  0
 46 47  2  0
 46 48  1  0
 48 49  1  0
 49 50  2  0
 50 51  1  0
 51 52  2  0
 52 53  1  0
 53 54  2  0
 54 55  1  0
 55 56  2  0
 56 57  1  0
 57 58  2  0
 58 59  1  0
 59 60  2  0
 22 61  1  0
 61 62  2  0
 18 63  1  0
 63 64  2  0
 63 65  1  0
 65 66  1  0
 66 67  2  0
 67 68  1  0
 68 69  2  0
 69 70  1  0
 70 71  2  0
 71 72  1  0
 72 73  2  0
 73 74  1  0
 74 75  2  0
 75 76  1  0
 76 77  2  0
  9  4  1  0
 16 11  1  0
 62 19  1  0
 77 63  1  0
 33 28  1  0
 45 35  1  0
 60 46  1  0
 71 66  1  0
 77 72  1  0
 43 41  1  0
 54 49  1  0
 60 55  1  0
M  END
>  <Candidate_ID>  (269) 
CAND_R2_269

>  <Candidate_Name>  (269) 
TDCA-DOPO-3-glycidyloxy

>  <Parent_Seed_ID>  (269) 
TRAIN_137

>  <Parent_Name>  (269) 
TDCA-DOPO-3

>  <Transformation_Code>  (269) 
glycidyloxy

>  <Design_Family>  (269) 
P-only

>  <Preparation_Type>  (269) 
Co-curing

>  <Synthesis_Level>  (269) 
B

>  <Parent_Tanimoto_r3>  (269) 
0.7738095238095238

>  <Max_Train_Tanimoto_r3>  (269) 
0.7738095238095238

>  <Risk_Flags>  (269) 
none

$$$$
CAND_R2_270 | TDCA-DOPO-3-diaminotriazine
     RDKit          2D

 80 91  0  0  0  0  0  0  0  0999 V2000
   -2.6511  -22.0129    0.0000 N   0  0  0  0  0  0  0  0  0  0  0  0
   -2.9116  -20.5357    0.0000 C   0  0  0  0  0  0  0  0  0  0  0  0
   -4.3211  -20.0227    0.0000 N   0  0  0  0  0  0  0  0  0  0  0  0
   -4.5816  -18.5455    0.0000 C   0  0  0  0  0  0  0  0  0  0  0  0
   -5.9911  -18.0324    0.0000 N   0  0  0  0  0  0  0  0  0  0  0  0
   -3.4325  -17.5813    0.0000 N   0  0  0  0  0  0  0  0  0  0  0  0
   -2.0230  -18.0943    0.0000 C   0  0  0  0  0  0  0  0  0  0  0  0
   -0.8739  -17.1301    0.0000 C   0  0  0  0  0  0  0  0  0  0  0  0
    0.5356  -17.6432    0.0000 C   0  0  0  0  0  0  0  0  0  0  0  0
    1.6847  -16.6790    0.0000 C   0  0  0  0  0  0  0  0  0  0  0  0
    1.4242  -15.2018    0.0000 C   0  0  0  0  0  0  0  0  0  0  0  0
    2.5733  -14.2376    0.0000 O   0  0  0  0  0  0  0  0  0  0  0  0
    2.3128  -12.7604    0.0000 P   0  0  0  0  0  0  0  0  0  0  0  0
    0.8356  -13.0209    0.0000 O   0  0  0  0  0  0  0  0  0  0  0  0
    3.7900  -12.4999    0.0000 O   0  0  0  0  0  0  0  0  0  0  0  0
    4.7542  -13.6490    0.0000 C   0  0  0  0  0  0  0  0  0  0  0  0
    4.2412  -15.0585    0.0000 C   0  0  0  0  0  0  0  0  0  0  0  0
    5.2054  -16.2076    0.0000 C   0  0  0  0  0  0  0  0  0  0  0  0
    6.6826  -15.9471    0.0000 C   0  0  0  0  0  0  0  0  0  0  0  0
    7.1956  -14.5376    0.0000 C   0  0  0  0  0  0  0  0  0  0  0  0
    6.2314  -13.3885    0.0000 C   0  0  0  0  0  0  0  0  0  0  0  0
    2.0524  -11.2832    0.0000 O   0  0  0  0  0  0  0  0  0  0  0  0
    3.2014  -10.3190    0.0000 C   0  0  0  0  0  0  0  0  0  0  0  0
    2.9410   -8.8418    0.0000 C   0  0  0  0  0  0  0  0  0  0  0  0
    4.0900   -7.8776    0.0000 C   0  0  0  0  0  0  0  0  0  0  0  0
    3.8296   -6.4004    0.0000 C   0  0  0  0  0  0  0  0  0  0  0  0
    2.4200   -5.8874    0.0000 C   0  0  0  0  0  0  0  0  0  0  0  0
    2.1595   -4.4101    0.0000 C   0  0  0  0  0  0  0  0  0  0  0  0
    3.3086   -3.4460    0.0000 O   0  0  0  0  0  0  0  0  0  0  0  0
    4.7181   -3.9590    0.0000 P   0  0  0  0  0  0  0  0  0  0  0  0
    4.2051   -5.3685    0.0000 O   0  0  0  0  0  0  0  0  0  0  0  0
    5.2312   -2.5495    0.0000 O   0  0  0  0  0  0  0  0  0  0  0  0
    4.2670   -1.4004    0.0000 C   0  0  0  0  0  0  0  0  0  0  0  0
    2.7898   -1.6609    0.0000 C   0  0  0  0  0  0  0  0  0  0  0  0
    1.8256   -0.5118    0.0000 C   0  0  0  0  0  0  0  0  0  0  0  0
    2.3386    0.8977    0.0000 C   0  0  0  0  0  0  0  0  0  0  0  0
    3.8158    1.1582    0.0000 C   0  0  0  0  0  0  0  0  0  0  0  0
    4.7800    0.0092    0.0000 C   0  0  0  0  0  0  0  0  0  0  0  0
    6.1277   -4.4720    0.0000 O   0  0  0  0  0  0  0  0  0  0  0  0
    7.2768   -3.5078    0.0000 C   0  0  0  0  0  0  0  0  0  0  0  0
    7.0163   -2.0306    0.0000 C   0  0  0  0  0  0  0  0  0  0  0  0
    8.1653   -1.0664    0.0000 C   0  0  0  0  0  0  0  0  0  0  0  0
    9.5749   -1.5795    0.0000 C   0  0  0  0  0  0  0  0  0  0  0  0
    9.8354   -3.0567    0.0000 C   0  0  0  0  0  0  0  0  0  0  0  0
    8.6863   -4.0209    0.0000 C   0  0  0  0  0  0  0  0  0  0  0  0
    0.7500   -3.8971    0.0000 P   0  0  0  0  0  0  0  0  0  0  0  0
    1.5000   -2.5981    0.0000 O   0  0  0  0  0  0  0  0  0  0  0  0
    0.4895   -5.3743    0.0000 O   0  0  0  0  0  0  0  0  0  0  0  0
   -0.9200   -5.8874    0.0000 C   0  0  0  0  0  0  0  0  0  0  0  0
   -1.1805   -7.3646    0.0000 C   0  0  0  0  0  0  0  0  0  0  0  0
   -2.5900   -7.8776    0.0000 C   0  0  0  0  0  0  0  0  0  0  0  0
   -3.7391   -6.9134    0.0000 C   0  0  0  0  0  0  0  0  0  0  0  0
   -3.4786   -5.4362    0.0000 C   0  0  0  0  0  0  0  0  0  0  0  0
   -2.0691   -4.9232    0.0000 C   0  0  0  0  0  0  0  0  0  0  0  0
   -1.8086   -3.4460    0.0000 C   0  0  0  0  0  0  0  0  0  0  0  0
   -2.9577   -2.4818    0.0000 C   0  0  0  0  0  0  0  0  0  0  0  0
   -2.6972   -1.0046    0.0000 C   0  0  0  0  0  0  0  0  0  0  0  0
   -1.2877   -0.4915    0.0000 C   0  0  0  0  0  0  0  0  0  0  0  0
   -0.1386   -1.4557    0.0000 C   0  0  0  0  0  0  0  0  0  0  0  0
   -0.3991   -2.9329    0.0000 C   0  0  0  0  0  0  0  0  0  0  0  0
    1.2709   -6.8515    0.0000 C   0  0  0  0  0  0  0  0  0  0  0  0
    1.5314   -8.3287    0.0000 C   0  0  0  0  0  0  0  0  0  0  0  0
    4.6110  -10.8320    0.0000 P   0  0  0  0  0  0  0  0  0  0  0  0
    4.3913  -11.5983    0.0000 O   0  0  0  0  0  0  0  0  0  0  0  0
    4.8714   -9.3548    0.0000 O   0  0  0  0  0  0  0  0  0  0  0  0
    6.2810   -8.8418    0.0000 C   0  0  0  0  0  0  0  0  0  0  0  0
    6.5415   -7.3646    0.0000 C   0  0  0  0  0  0  0  0  0  0  0  0
    7.9510   -6.8515    0.0000 C   0  0  0  0  0  0  0  0  0  0  0  0
    9.1001   -7.8157    0.0000 C   0  0  0  0  0  0  0  0  0  0  0  0
    8.8396   -9.2929    0.0000 C   0  0  0  0  0  0  0  0  0  0  0  0
    7.4300   -9.8060    0.0000 C   0  0  0  0  0  0  0  0  0  0  0  0
    7.1696  -11.2832    0.0000 C   0  0  0  0  0  0  0  0  0  0  0  0
    8.3186  -12.2474    0.0000 C   0  0  0  0  0  0  0  0  0  0  0  0
    8.0582  -13.7246    0.0000 C   0  0  0  0  0  0  0  0  0  0  0  0
    6.6486  -14.2376    0.0000 C   0  0  0  0  0  0  0  0  0  0  0  0
    5.4996  -13.2734    0.0000 C   0  0  0  0  0  0  0  0  0  0  0  0
    5.7600  -11.7962    0.0000 C   0  0  0  0  0  0  0  0  0  0  0  0
    0.0147  -14.6887    0.0000 C   0  0  0  0  0  0  0  0  0  0  0  0
   -1.1344  -15.6529    0.0000 C   0  0  0  0  0  0  0  0  0  0  0  0
   -1.7625  -19.5715    0.0000 N   0  0  0  0  0  0  0  0  0  0  0  0
  1  2  1  0
  2  3  2  0
  3  4  1  0
  4  5  1  0
  4  6  2  0
  6  7  1  0
  7  8  1  0
  8  9  2  0
  9 10  1  0
 10 11  2  0
 11 12  1  0
 12 13  1  0
 13 14  2  0
 13 15  1  0
 15 16  1  0
 16 17  2  0
 17 18  1  0
 18 19  2  0
 19 20  1  0
 20 21  2  0
 13 22  1  0
 22 23  1  0
 23 24  1  0
 24 25  2  0
 25 26  1  0
 26 27  2  0
 27 28  1  0
 28 29  1  0
 29 30  1  0
 30 31  2  0
 30 32  1  0
 32 33  1  0
 33 34  2  0
 34 35  1  0
 35 36  2  0
 36 37  1  0
 37 38  2  0
 30 39  1  0
 39 40  1  0
 40 41  2  0
 41 42  1  0
 42 43  2  0
 43 44  1  0
 44 45  2  0
 28 46  1  0
 46 47  2  0
 46 48  1  0
 48 49  1  0
 49 50  2  0
 50 51  1  0
 51 52  2  0
 52 53  1  0
 53 54  2  0
 54 55  1  0
 55 56  2  0
 56 57  1  0
 57 58  2  0
 58 59  1  0
 59 60  2  0
 27 61  1  0
 61 62  2  0
 23 63  1  0
 63 64  2  0
 63 65  1  0
 65 66  1  0
 66 67  2  0
 67 68  1  0
 68 69  2  0
 69 70  1  0
 70 71  2  0
 71 72  1  0
 72 73  2  0
 73 74  1  0
 74 75  2  0
 75 76  1  0
 76 77  2  0
 11 78  1  0
 78 79  2  0
  7 80  2  0
 80  2  1  0
 79  8  1  0
 21 16  1  0
 62 24  1  0
 77 63  1  0
 38 33  1  0
 45 40  1  0
 60 46  1  0
 71 66  1  0
 77 72  1  0
 54 49  1  0
 60 55  1  0
M  END
>  <Candidate_ID>  (270) 
CAND_R2_270

>  <Candidate_Name>  (270) 
TDCA-DOPO-3-diaminotriazine

>  <Parent_Seed_ID>  (270) 
TRAIN_137

>  <Parent_Name>  (270) 
TDCA-DOPO-3

>  <Transformation_Code>  (270) 
diaminotriazine

>  <Design_Family>  (270) 
P-N

>  <Preparation_Type>  (270) 
Co-curing

>  <Synthesis_Level>  (270) 
B

>  <Parent_Tanimoto_r3>  (270) 
0.7558139534883721

>  <Max_Train_Tanimoto_r3>  (270) 
0.7558139534883721

>  <Risk_Flags>  (270) 
none

$$$$
CAND_R2_271 | TDCA-DOPO-3-piperazine
     RDKit          2D

 78 89  0  0  0  0  0  0  0  0999 V2000
    0.8356  -13.0209    0.0000 O   0  0  0  0  0  0  0  0  0  0  0  0
    2.3128  -12.7604    0.0000 P   0  0  0  0  0  0  0  0  0  0  0  0
    3.7900  -12.4999    0.0000 O   0  0  0  0  0  0  0  0  0  0  0  0
    4.7542  -13.6490    0.0000 C   0  0  0  0  0  0  0  0  0  0  0  0
    4.2412  -15.0585    0.0000 C   0  0  0  0  0  0  0  0  0  0  0  0
    5.2054  -16.2076    0.0000 C   0  0  0  0  0  0  0  0  0  0  0  0
    6.6826  -15.9471    0.0000 C   0  0  0  0  0  0  0  0  0  0  0  0
    7.1956  -14.5376    0.0000 C   0  0  0  0  0  0  0  0  0  0  0  0
    6.2314  -13.3885    0.0000 C   0  0  0  0  0  0  0  0  0  0  0  0
    2.5733  -14.2376    0.0000 O   0  0  0  0  0  0  0  0  0  0  0  0
    1.4242  -15.2018    0.0000 C   0  0  0  0  0  0  0  0  0  0  0  0
    0.0147  -14.6887    0.0000 C   0  0  0  0  0  0  0  0  0  0  0  0
   -1.1344  -15.6529    0.0000 C   0  0  0  0  0  0  0  0  0  0  0  0
   -0.8739  -17.1301    0.0000 C   0  0  0  0  0  0  0  0  0  0  0  0
    0.5356  -17.6432    0.0000 C   0  0  0  0  0  0  0  0  0  0  0  0
    1.6847  -16.6790    0.0000 C   0  0  0  0  0  0  0  0  0  0  0  0
    2.0524  -11.2832    0.0000 O   0  0  0  0  0  0  0  0  0  0  0  0
    3.2014  -10.3190    0.0000 C   0  0  0  0  0  0  0  0  0  0  0  0
    2.9410   -8.8418    0.0000 C   0  0  0  0  0  0  0  0  0  0  0  0
    4.0900   -7.8776    0.0000 C   0  0  0  0  0  0  0  0  0  0  0  0
    3.8296   -6.4004    0.0000 C   0  0  0  0  0  0  0  0  0  0  0  0
    2.4200   -5.8874    0.0000 C   0  0  0  0  0  0  0  0  0  0  0  0
    2.1595   -4.4101    0.0000 C   0  0  0  0  0  0  0  0  0  0  0  0
    3.3086   -3.4460    0.0000 O   0  0  0  0  0  0  0  0  0  0  0  0
    4.7181   -3.9590    0.0000 P   0  0  0  0  0  0  0  0  0  0  0  0
    4.2051   -5.3685    0.0000 O   0  0  0  0  0  0  0  0  0  0  0  0
    5.2312   -2.5495    0.0000 O   0  0  0  0  0  0  0  0  0  0  0  0
    4.2670   -1.4004    0.0000 C   0  0  0  0  0  0  0  0  0  0  0  0
    2.7898   -1.6609    0.0000 C   0  0  0  0  0  0  0  0  0  0  0  0
    1.8256   -0.5118    0.0000 C   0  0  0  0  0  0  0  0  0  0  0  0
    2.3386    0.8977    0.0000 C   0  0  0  0  0  0  0  0  0  0  0  0
    3.8158    1.1582    0.0000 C   0  0  0  0  0  0  0  0  0  0  0  0
    4.7800    0.0092    0.0000 C   0  0  0  0  0  0  0  0  0  0  0  0
    6.1277   -4.4720    0.0000 O   0  0  0  0  0  0  0  0  0  0  0  0
    7.2768   -3.5078    0.0000 C   0  0  0  0  0  0  0  0  0  0  0  0
    7.0163   -2.0306    0.0000 C   0  0  0  0  0  0  0  0  0  0  0  0
    8.1653   -1.0664    0.0000 C   0  0  0  0  0  0  0  0  0  0  0  0
    9.5749   -1.5795    0.0000 C   0  0  0  0  0  0  0  0  0  0  0  0
   10.7240   -0.6153    0.0000 N   0  0  0  0  0  0  0  0  0  0  0  0
   10.4635    0.8619    0.0000 C   0  0  0  0  0  0  0  0  0  0  0  0
   11.6125    1.8261    0.0000 C   0  0  0  0  0  0  0  0  0  0  0  0
   13.0221    1.3131    0.0000 N   0  0  0  0  0  0  0  0  0  0  0  0
   13.2826   -0.1641    0.0000 C   0  0  0  0  0  0  0  0  0  0  0  0
   12.1335   -1.1283    0.0000 C   0  0  0  0  0  0  0  0  0  0  0  0
    9.8354   -3.0567    0.0000 C   0  0  0  0  0  0  0  0  0  0  0  0
    8.6863   -4.0209    0.0000 C   0  0  0  0  0  0  0  0  0  0  0  0
    0.7500   -3.8971    0.0000 P   0  0  0  0  0  0  0  0  0  0  0  0
    1.5000   -2.5981    0.0000 O   0  0  0  0  0  0  0  0  0  0  0  0
    0.4895   -5.3743    0.0000 O   0  0  0  0  0  0  0  0  0  0  0  0
   -0.9200   -5.8874    0.0000 C   0  0  0  0  0  0  0  0  0  0  0  0
   -1.1805   -7.3646    0.0000 C   0  0  0  0  0  0  0  0  0  0  0  0
   -2.5900   -7.8776    0.0000 C   0  0  0  0  0  0  0  0  0  0  0  0
   -3.7391   -6.9134    0.0000 C   0  0  0  0  0  0  0  0  0  0  0  0
   -3.4786   -5.4362    0.0000 C   0  0  0  0  0  0  0  0  0  0  0  0
   -2.0691   -4.9232    0.0000 C   0  0  0  0  0  0  0  0  0  0  0  0
   -1.8086   -3.4460    0.0000 C   0  0  0  0  0  0  0  0  0  0  0  0
   -2.9577   -2.4818    0.0000 C   0  0  0  0  0  0  0  0  0  0  0  0
   -2.6972   -1.0046    0.0000 C   0  0  0  0  0  0  0  0  0  0  0  0
   -1.2877   -0.4915    0.0000 C   0  0  0  0  0  0  0  0  0  0  0  0
   -0.1386   -1.4557    0.0000 C   0  0  0  0  0  0  0  0  0  0  0  0
   -0.3991   -2.9329    0.0000 C   0  0  0  0  0  0  0  0  0  0  0  0
    1.2709   -6.8515    0.0000 C   0  0  0  0  0  0  0  0  0  0  0  0
    1.5314   -8.3287    0.0000 C   0  0  0  0  0  0  0  0  0  0  0  0
    4.6110  -10.8320    0.0000 P   0  0  0  0  0  0  0  0  0  0  0  0
    4.3913  -11.5983    0.0000 O   0  0  0  0  0  0  0  0  0  0  0  0
    4.8714   -9.3548    0.0000 O   0  0  0  0  0  0  0  0  0  0  0  0
    6.2810   -8.8418    0.0000 C   0  0  0  0  0  0  0  0  0  0  0  0
    6.5415   -7.3646    0.0000 C   0  0  0  0  0  0  0  0  0  0  0  0
    7.9510   -6.8515    0.0000 C   0  0  0  0  0  0  0  0  0  0  0  0
    9.1001   -7.8157    0.0000 C   0  0  0  0  0  0  0  0  0  0  0  0
    8.8396   -9.2929    0.0000 C   0  0  0  0  0  0  0  0  0  0  0  0
    7.4300   -9.8060    0.0000 C   0  0  0  0  0  0  0  0  0  0  0  0
    7.1696  -11.2832    0.0000 C   0  0  0  0  0  0  0  0  0  0  0  0
    8.3186  -12.2474    0.0000 C   0  0  0  0  0  0  0  0  0  0  0  0
    8.0582  -13.7246    0.0000 C   0  0  0  0  0  0  0  0  0  0  0  0
    6.6486  -14.2376    0.0000 C   0  0  0  0  0  0  0  0  0  0  0  0
    5.4996  -13.2734    0.0000 C   0  0  0  0  0  0  0  0  0  0  0  0
    5.7600  -11.7962    0.0000 C   0  0  0  0  0  0  0  0  0  0  0  0
  1  2  2  0
  2  3  1  0
  3  4  1  0
  4  5  2  0
  5  6  1  0
  6  7  2  0
  7  8  1  0
  8  9  2  0
  2 10  1  0
 10 11  1  0
 11 12  2  0
 12 13  1  0
 13 14  2  0
 14 15  1  0
 15 16  2  0
  2 17  1  0
 17 18  1  0
 18 19  1  0
 19 20  2  0
 20 21  1  0
 21 22  2  0
 22 23  1  0
 23 24  1  0
 24 25  1  0
 25 26  2  0
 25 27  1  0
 27 28  1  0
 28 29  2  0
 29 30  1  0
 30 31  2  0
 31 32  1  0
 32 33  2  0
 25 34  1  0
 34 35  1  0
 35 36  2  0
 36 37  1  0
 37 38  2  0
 38 39  1  0
 39 40  1  0
 40 41  1  0
 41 42  1  0
 42 43  1  0
 43 44  1  0
 38 45  1  0
 45 46  2  0
 23 47  1  0
 47 48  2  0
 47 49  1  0
 49 50  1  0
 50 51  2  0
 51 52  1  0
 52 53  2  0
 53 54  1  0
 54 55  2  0
 55 56  1  0
 56 57  2  0
 57 58  1  0
 58 59  2  0
 59 60  1  0
 60 61  2  0
 22 62  1  0
 62 63  2  0
 18 64  1  0
 64 65  2  0
 64 66  1  0
 66 67  1  0
 67 68  2  0
 68 69  1  0
 69 70  2  0
 70 71  1  0
 71 72  2  0
 72 73  1  0
 73 74  2  0
 74 75  1  0
 75 76  2  0
 76 77  1  0
 77 78  2  0
  9  4  1  0
 16 11  1  0
 63 19  1  0
 78 64  1  0
 33 28  1  0
 46 35  1  0
 61 47  1  0
 72 67  1  0
 78 73  1  0
 44 39  1  0
 55 50  1  0
 61 56  1  0
M  END
>  <Candidate_ID>  (271) 
CAND_R2_271

>  <Candidate_Name>  (271) 
TDCA-DOPO-3-piperazine

>  <Parent_Seed_ID>  (271) 
TRAIN_137

>  <Parent_Name>  (271) 
TDCA-DOPO-3

>  <Transformation_Code>  (271) 
piperazine

>  <Design_Family>  (271) 
P-N

>  <Preparation_Type>  (271) 
Co-curing

>  <Synthesis_Level>  (271) 
B

>  <Parent_Tanimoto_r3>  (271) 
0.7386363636363636

>  <Max_Train_Tanimoto_r3>  (271) 
0.7386363636363636

>  <Risk_Flags>  (271) 
none

$$$$
CAND_R2_272 | TDCA-DOPO-3-benzamide-linker
     RDKit          2D

 81 92  0  0  0  0  0  0  0  0999 V2000
   -3.6930  -16.1041    0.0000 O   0  0  0  0  0  0  0  0  0  0  0  0
   -3.4325  -17.5813    0.0000 C   0  0  0  0  0  0  0  0  0  0  0  0
   -2.0230  -18.0943    0.0000 N   0  0  0  0  0  0  0  0  0  0  0  0
   -0.8739  -17.1301    0.0000 C   0  0  0  0  0  0  0  0  0  0  0  0
    0.5356  -17.6432    0.0000 C   0  0  0  0  0  0  0  0  0  0  0  0
    1.6847  -16.6790    0.0000 C   0  0  0  0  0  0  0  0  0  0  0  0
    1.4242  -15.2018    0.0000 C   0  0  0  0  0  0  0  0  0  0  0  0
    2.5733  -14.2376    0.0000 O   0  0  0  0  0  0  0  0  0  0  0  0
    2.3128  -12.7604    0.0000 P   0  0  0  0  0  0  0  0  0  0  0  0
    0.8356  -13.0209    0.0000 O   0  0  0  0  0  0  0  0  0  0  0  0
    3.7900  -12.4999    0.0000 O   0  0  0  0  0  0  0  0  0  0  0  0
    4.7542  -13.6490    0.0000 C   0  0  0  0  0  0  0  0  0  0  0  0
    4.2412  -15.0585    0.0000 C   0  0  0  0  0  0  0  0  0  0  0  0
    5.2054  -16.2076    0.0000 C   0  0  0  0  0  0  0  0  0  0  0  0
    6.6826  -15.9471    0.0000 C   0  0  0  0  0  0  0  0  0  0  0  0
    7.1956  -14.5376    0.0000 C   0  0  0  0  0  0  0  0  0  0  0  0
    6.2314  -13.3885    0.0000 C   0  0  0  0  0  0  0  0  0  0  0  0
    2.0524  -11.2832    0.0000 O   0  0  0  0  0  0  0  0  0  0  0  0
    3.2014  -10.3190    0.0000 C   0  0  0  0  0  0  0  0  0  0  0  0
    2.9410   -8.8418    0.0000 C   0  0  0  0  0  0  0  0  0  0  0  0
    4.0900   -7.8776    0.0000 C   0  0  0  0  0  0  0  0  0  0  0  0
    3.8296   -6.4004    0.0000 C   0  0  0  0  0  0  0  0  0  0  0  0
    2.4200   -5.8874    0.0000 C   0  0  0  0  0  0  0  0  0  0  0  0
    2.1595   -4.4101    0.0000 C   0  0  0  0  0  0  0  0  0  0  0  0
    3.3086   -3.4460    0.0000 O   0  0  0  0  0  0  0  0  0  0  0  0
    4.7181   -3.9590    0.0000 P   0  0  0  0  0  0  0  0  0  0  0  0
    4.2051   -5.3685    0.0000 O   0  0  0  0  0  0  0  0  0  0  0  0
    5.2312   -2.5495    0.0000 O   0  0  0  0  0  0  0  0  0  0  0  0
    4.2670   -1.4004    0.0000 C   0  0  0  0  0  0  0  0  0  0  0  0
    2.7898   -1.6609    0.0000 C   0  0  0  0  0  0  0  0  0  0  0  0
    1.8256   -0.5118    0.0000 C   0  0  0  0  0  0  0  0  0  0  0  0
    2.3386    0.8977    0.0000 C   0  0  0  0  0  0  0  0  0  0  0  0
    3.8158    1.1582    0.0000 C   0  0  0  0  0  0  0  0  0  0  0  0
    4.7800    0.0092    0.0000 C   0  0  0  0  0  0  0  0  0  0  0  0
    6.1277   -4.4720    0.0000 O   0  0  0  0  0  0  0  0  0  0  0  0
    7.2768   -3.5078    0.0000 C   0  0  0  0  0  0  0  0  0  0  0  0
    7.0163   -2.0306    0.0000 C   0  0  0  0  0  0  0  0  0  0  0  0
    8.1653   -1.0664    0.0000 C   0  0  0  0  0  0  0  0  0  0  0  0
    9.5749   -1.5795    0.0000 C   0  0  0  0  0  0  0  0  0  0  0  0
    9.8354   -3.0567    0.0000 C   0  0  0  0  0  0  0  0  0  0  0  0
    8.6863   -4.0209    0.0000 C   0  0  0  0  0  0  0  0  0  0  0  0
    0.7500   -3.8971    0.0000 P   0  0  0  0  0  0  0  0  0  0  0  0
    1.5000   -2.5981    0.0000 O   0  0  0  0  0  0  0  0  0  0  0  0
    0.4895   -5.3743    0.0000 O   0  0  0  0  0  0  0  0  0  0  0  0
   -0.9200   -5.8874    0.0000 C   0  0  0  0  0  0  0  0  0  0  0  0
   -1.1805   -7.3646    0.0000 C   0  0  0  0  0  0  0  0  0  0  0  0
   -2.5900   -7.8776    0.0000 C   0  0  0  0  0  0  0  0  0  0  0  0
   -3.7391   -6.9134    0.0000 C   0  0  0  0  0  0  0  0  0  0  0  0
   -3.4786   -5.4362    0.0000 C   0  0  0  0  0  0  0  0  0  0  0  0
   -2.0691   -4.9232    0.0000 C   0  0  0  0  0  0  0  0  0  0  0  0
   -1.8086   -3.4460    0.0000 C   0  0  0  0  0  0  0  0  0  0  0  0
   -2.9577   -2.4818    0.0000 C   0  0  0  0  0  0  0  0  0  0  0  0
   -2.6972   -1.0046    0.0000 C   0  0  0  0  0  0  0  0  0  0  0  0
   -1.2877   -0.4915    0.0000 C   0  0  0  0  0  0  0  0  0  0  0  0
   -0.1386   -1.4557    0.0000 C   0  0  0  0  0  0  0  0  0  0  0  0
   -0.3991   -2.9329    0.0000 C   0  0  0  0  0  0  0  0  0  0  0  0
    1.2709   -6.8515    0.0000 C   0  0  0  0  0  0  0  0  0  0  0  0
    1.5314   -8.3287    0.0000 C   0  0  0  0  0  0  0  0  0  0  0  0
    4.6110  -10.8320    0.0000 P   0  0  0  0  0  0  0  0  0  0  0  0
    4.3913  -11.5983    0.0000 O   0  0  0  0  0  0  0  0  0  0  0  0
    4.8714   -9.3548    0.0000 O   0  0  0  0  0  0  0  0  0  0  0  0
    6.2810   -8.8418    0.0000 C   0  0  0  0  0  0  0  0  0  0  0  0
    6.5415   -7.3646    0.0000 C   0  0  0  0  0  0  0  0  0  0  0  0
    7.9510   -6.8515    0.0000 C   0  0  0  0  0  0  0  0  0  0  0  0
    9.1001   -7.8157    0.0000 C   0  0  0  0  0  0  0  0  0  0  0  0
    8.8396   -9.2929    0.0000 C   0  0  0  0  0  0  0  0  0  0  0  0
    7.4300   -9.8060    0.0000 C   0  0  0  0  0  0  0  0  0  0  0  0
    7.1696  -11.2832    0.0000 C   0  0  0  0  0  0  0  0  0  0  0  0
    8.3186  -12.2474    0.0000 C   0  0  0  0  0  0  0  0  0  0  0  0
    8.0582  -13.7246    0.0000 C   0  0  0  0  0  0  0  0  0  0  0  0
    6.6486  -14.2376    0.0000 C   0  0  0  0  0  0  0  0  0  0  0  0
    5.4996  -13.2734    0.0000 C   0  0  0  0  0  0  0  0  0  0  0  0
    5.7600  -11.7962    0.0000 C   0  0  0  0  0  0  0  0  0  0  0  0
    0.0147  -14.6887    0.0000 C   0  0  0  0  0  0  0  0  0  0  0  0
   -1.1344  -15.6529    0.0000 C   0  0  0  0  0  0  0  0  0  0  0  0
   -4.5816  -18.5455    0.0000 C   0  0  0  0  0  0  0  0  0  0  0  0
   -5.9911  -18.0324    0.0000 C   0  0  0  0  0  0  0  0  0  0  0  0
   -7.1402  -18.9966    0.0000 C   0  0  0  0  0  0  0  0  0  0  0  0
   -6.8797  -20.4738    0.0000 C   0  0  0  0  0  0  0  0  0  0  0  0
   -5.4702  -20.9869    0.0000 C   0  0  0  0  0  0  0  0  0  0  0  0
   -4.3211  -20.0227    0.0000 C   0  0  0  0  0  0  0  0  0  0  0  0
  1  2  2  0
  2  3  1  0
  3  4  1  0
  4  5  2  0
  5  6  1  0
  6  7  2  0
  7  8  1  0
  8  9  1  0
  9 10  2  0
  9 11  1  0
 11 12  1  0
 12 13  2  0
 13 14  1  0
 14 15  2  0
 15 16  1  0
 16 17  2  0
  9 18  1  0
 18 19  1  0
 19 20  1  0
 20 21  2  0
 21 22  1  0
 22 23  2  0
 23 24  1  0
 24 25  1  0
 25 26  1  0
 26 27  2  0
 26 28  1  0
 28 29  1  0
 29 30  2  0
 30 31  1  0
 31 32  2  0
 32 33  1  0
 33 34  2  0
 26 35  1  0
 35 36  1  0
 36 37  2  0
 37 38  1  0
 38 39  2  0
 39 40  1  0
 40 41  2  0
 24 42  1  0
 42 43  2  0
 42 44  1  0
 44 45  1  0
 45 46  2  0
 46 47  1  0
 47 48  2  0
 48 49  1  0
 49 50  2  0
 50 51  1  0
 51 52  2  0
 52 53  1  0
 53 54  2  0
 54 55  1  0
 55 56  2  0
 23 57  1  0
 57 58  2  0
 19 59  1  0
 59 60  2  0
 59 61  1  0
 61 62  1  0
 62 63  2  0
 63 64  1  0
 64 65  2  0
 65 66  1  0
 66 67  2  0
 67 68  1  0
 68 69  2  0
 69 70  1  0
 70 71  2  0
 71 72  1  0
 72 73  2  0
  7 74  1  0
 74 75  2  0
  2 76  1  0
 76 77  2  0
 77 78  1  0
 78 79  2  0
 79 80  1  0
 80 81  2  0
 75  4  1  0
 81 76  1  0
 17 12  1  0
 58 20  1  0
 73 59  1  0
 34 29  1  0
 41 36  1  0
 56 42  1  0
 67 62  1  0
 73 68  1  0
 50 45  1  0
 56 51  1  0
M  END
>  <Candidate_ID>  (272) 
CAND_R2_272

>  <Candidate_Name>  (272) 
TDCA-DOPO-3-benzamide-linker

>  <Parent_Seed_ID>  (272) 
TRAIN_137

>  <Parent_Name>  (272) 
TDCA-DOPO-3

>  <Transformation_Code>  (272) 
benzamide_linker

>  <Design_Family>  (272) 
P-N

>  <Preparation_Type>  (272) 
Additive

>  <Synthesis_Level>  (272) 
B

>  <Parent_Tanimoto_r3>  (272) 
0.7471264367816092

>  <Max_Train_Tanimoto_r3>  (272) 
0.7471264367816092

>  <Risk_Flags>  (272) 
none

$$$$
CAND_R2_273 | TDCA-DOPO-3-phenyl
     RDKit          2D

 78 89  0  0  0  0  0  0  0  0999 V2000
    0.8356  -13.0209    0.0000 O   0  0  0  0  0  0  0  0  0  0  0  0
    2.3128  -12.7604    0.0000 P   0  0  0  0  0  0  0  0  0  0  0  0
    3.7900  -12.4999    0.0000 O   0  0  0  0  0  0  0  0  0  0  0  0
    4.7542  -13.6490    0.0000 C   0  0  0  0  0  0  0  0  0  0  0  0
    4.2412  -15.0585    0.0000 C   0  0  0  0  0  0  0  0  0  0  0  0
    5.2054  -16.2076    0.0000 C   0  0  0  0  0  0  0  0  0  0  0  0
    6.6826  -15.9471    0.0000 C   0  0  0  0  0  0  0  0  0  0  0  0
    7.1956  -14.5376    0.0000 C   0  0  0  0  0  0  0  0  0  0  0  0
    6.2314  -13.3885    0.0000 C   0  0  0  0  0  0  0  0  0  0  0  0
    2.5733  -14.2376    0.0000 O   0  0  0  0  0  0  0  0  0  0  0  0
    1.4242  -15.2018    0.0000 C   0  0  0  0  0  0  0  0  0  0  0  0
    0.0147  -14.6887    0.0000 C   0  0  0  0  0  0  0  0  0  0  0  0
   -1.1344  -15.6529    0.0000 C   0  0  0  0  0  0  0  0  0  0  0  0
   -0.8739  -17.1301    0.0000 C   0  0  0  0  0  0  0  0  0  0  0  0
    0.5356  -17.6432    0.0000 C   0  0  0  0  0  0  0  0  0  0  0  0
    1.6847  -16.6790    0.0000 C   0  0  0  0  0  0  0  0  0  0  0  0
    2.0524  -11.2832    0.0000 O   0  0  0  0  0  0  0  0  0  0  0  0
    3.2014  -10.3190    0.0000 C   0  0  0  0  0  0  0  0  0  0  0  0
    2.9410   -8.8418    0.0000 C   0  0  0  0  0  0  0  0  0  0  0  0
    4.0900   -7.8776    0.0000 C   0  0  0  0  0  0  0  0  0  0  0  0
    3.8296   -6.4004    0.0000 C   0  0  0  0  0  0  0  0  0  0  0  0
    2.4200   -5.8874    0.0000 C   0  0  0  0  0  0  0  0  0  0  0  0
    2.1595   -4.4101    0.0000 C   0  0  0  0  0  0  0  0  0  0  0  0
    3.3086   -3.4460    0.0000 O   0  0  0  0  0  0  0  0  0  0  0  0
    4.7181   -3.9590    0.0000 P   0  0  0  0  0  0  0  0  0  0  0  0
    4.2051   -5.3685    0.0000 O   0  0  0  0  0  0  0  0  0  0  0  0
    5.2312   -2.5495    0.0000 O   0  0  0  0  0  0  0  0  0  0  0  0
    4.2670   -1.4004    0.0000 C   0  0  0  0  0  0  0  0  0  0  0  0
    2.7898   -1.6609    0.0000 C   0  0  0  0  0  0  0  0  0  0  0  0
    1.8256   -0.5118    0.0000 C   0  0  0  0  0  0  0  0  0  0  0  0
    2.3386    0.8977    0.0000 C   0  0  0  0  0  0  0  0  0  0  0  0
    3.8158    1.1582    0.0000 C   0  0  0  0  0  0  0  0  0  0  0  0
    4.7800    0.0092    0.0000 C   0  0  0  0  0  0  0  0  0  0  0  0
    6.1277   -4.4720    0.0000 O   0  0  0  0  0  0  0  0  0  0  0  0
    7.2768   -3.5078    0.0000 C   0  0  0  0  0  0  0  0  0  0  0  0
    7.0163   -2.0306    0.0000 C   0  0  0  0  0  0  0  0  0  0  0  0
    8.1653   -1.0664    0.0000 C   0  0  0  0  0  0  0  0  0  0  0  0
    9.5749   -1.5795    0.0000 C   0  0  0  0  0  0  0  0  0  0  0  0
   10.7240   -0.6153    0.0000 C   0  0  0  0  0  0  0  0  0  0  0  0
   10.4635    0.8619    0.0000 C   0  0  0  0  0  0  0  0  0  0  0  0
   11.6125    1.8261    0.0000 C   0  0  0  0  0  0  0  0  0  0  0  0
   13.0221    1.3131    0.0000 C   0  0  0  0  0  0  0  0  0  0  0  0
   13.2826   -0.1641    0.0000 C   0  0  0  0  0  0  0  0  0  0  0  0
   12.1335   -1.1283    0.0000 C   0  0  0  0  0  0  0  0  0  0  0  0
    9.8354   -3.0567    0.0000 C   0  0  0  0  0  0  0  0  0  0  0  0
    8.6863   -4.0209    0.0000 C   0  0  0  0  0  0  0  0  0  0  0  0
    0.7500   -3.8971    0.0000 P   0  0  0  0  0  0  0  0  0  0  0  0
    1.5000   -2.5981    0.0000 O   0  0  0  0  0  0  0  0  0  0  0  0
    0.4895   -5.3743    0.0000 O   0  0  0  0  0  0  0  0  0  0  0  0
   -0.9200   -5.8874    0.0000 C   0  0  0  0  0  0  0  0  0  0  0  0
   -1.1805   -7.3646    0.0000 C   0  0  0  0  0  0  0  0  0  0  0  0
   -2.5900   -7.8776    0.0000 C   0  0  0  0  0  0  0  0  0  0  0  0
   -3.7391   -6.9134    0.0000 C   0  0  0  0  0  0  0  0  0  0  0  0
   -3.4786   -5.4362    0.0000 C   0  0  0  0  0  0  0  0  0  0  0  0
   -2.0691   -4.9232    0.0000 C   0  0  0  0  0  0  0  0  0  0  0  0
   -1.8086   -3.4460    0.0000 C   0  0  0  0  0  0  0  0  0  0  0  0
   -2.9577   -2.4818    0.0000 C   0  0  0  0  0  0  0  0  0  0  0  0
   -2.6972   -1.0046    0.0000 C   0  0  0  0  0  0  0  0  0  0  0  0
   -1.2877   -0.4915    0.0000 C   0  0  0  0  0  0  0  0  0  0  0  0
   -0.1386   -1.4557    0.0000 C   0  0  0  0  0  0  0  0  0  0  0  0
   -0.3991   -2.9329    0.0000 C   0  0  0  0  0  0  0  0  0  0  0  0
    1.2709   -6.8515    0.0000 C   0  0  0  0  0  0  0  0  0  0  0  0
    1.5314   -8.3287    0.0000 C   0  0  0  0  0  0  0  0  0  0  0  0
    4.6110  -10.8320    0.0000 P   0  0  0  0  0  0  0  0  0  0  0  0
    4.3913  -11.5983    0.0000 O   0  0  0  0  0  0  0  0  0  0  0  0
    4.8714   -9.3548    0.0000 O   0  0  0  0  0  0  0  0  0  0  0  0
    6.2810   -8.8418    0.0000 C   0  0  0  0  0  0  0  0  0  0  0  0
    6.5415   -7.3646    0.0000 C   0  0  0  0  0  0  0  0  0  0  0  0
    7.9510   -6.8515    0.0000 C   0  0  0  0  0  0  0  0  0  0  0  0
    9.1001   -7.8157    0.0000 C   0  0  0  0  0  0  0  0  0  0  0  0
    8.8396   -9.2929    0.0000 C   0  0  0  0  0  0  0  0  0  0  0  0
    7.4300   -9.8060    0.0000 C   0  0  0  0  0  0  0  0  0  0  0  0
    7.1696  -11.2832    0.0000 C   0  0  0  0  0  0  0  0  0  0  0  0
    8.3186  -12.2474    0.0000 C   0  0  0  0  0  0  0  0  0  0  0  0
    8.0582  -13.7246    0.0000 C   0  0  0  0  0  0  0  0  0  0  0  0
    6.6486  -14.2376    0.0000 C   0  0  0  0  0  0  0  0  0  0  0  0
    5.4996  -13.2734    0.0000 C   0  0  0  0  0  0  0  0  0  0  0  0
    5.7600  -11.7962    0.0000 C   0  0  0  0  0  0  0  0  0  0  0  0
  1  2  2  0
  2  3  1  0
  3  4  1  0
  4  5  2  0
  5  6  1  0
  6  7  2  0
  7  8  1  0
  8  9  2  0
  2 10  1  0
 10 11  1  0
 11 12  2  0
 12 13  1  0
 13 14  2  0
 14 15  1  0
 15 16  2  0
  2 17  1  0
 17 18  1  0
 18 19  1  0
 19 20  2  0
 20 21  1  0
 21 22  2  0
 22 23  1  0
 23 24  1  0
 24 25  1  0
 25 26  2  0
 25 27  1  0
 27 28  1  0
 28 29  2  0
 29 30  1  0
 30 31  2  0
 31 32  1  0
 32 33  2  0
 25 34  1  0
 34 35  1  0
 35 36  2  0
 36 37  1  0
 37 38  2  0
 38 39  1  0
 39 40  2  0
 40 41  1  0
 41 42  2  0
 42 43  1  0
 43 44  2  0
 38 45  1  0
 45 46  2  0
 23 47  1  0
 47 48  2  0
 47 49  1  0
 49 50  1  0
 50 51  2  0
 51 52  1  0
 52 53  2  0
 53 54  1  0
 54 55  2  0
 55 56  1  0
 56 57  2  0
 57 58  1  0
 58 59  2  0
 59 60  1  0
 60 61  2  0
 22 62  1  0
 62 63  2  0
 18 64  1  0
 64 65  2  0
 64 66  1  0
 66 67  1  0
 67 68  2  0
 68 69  1  0
 69 70  2  0
 70 71  1  0
 71 72  2  0
 72 73  1  0
 73 74  2  0
 74 75  1  0
 75 76  2  0
 76 77  1  0
 77 78  2  0
  9  4  1  0
 16 11  1  0
 63 19  1  0
 78 64  1  0
 33 28  1  0
 46 35  1  0
 61 47  1  0
 72 67  1  0
 78 73  1  0
 44 39  1  0
 55 50  1  0
 61 56  1  0
M  END
>  <Candidate_ID>  (273) 
CAND_R2_273

>  <Candidate_Name>  (273) 
TDCA-DOPO-3-phenyl

>  <Parent_Seed_ID>  (273) 
TRAIN_137

>  <Parent_Name>  (273) 
TDCA-DOPO-3

>  <Transformation_Code>  (273) 
phenyl

>  <Design_Family>  (273) 
P-only

>  <Preparation_Type>  (273) 
Additive

>  <Synthesis_Level>  (273) 
B

>  <Parent_Tanimoto_r3>  (273) 
0.8441558441558441

>  <Max_Train_Tanimoto_r3>  (273) 
0.8441558441558441

>  <Risk_Flags>  (273) 
none

$$$$
CAND_R2_274 | TDCA-DOPO-3-biphenyl
     RDKit          2D

 84 96  0  0  0  0  0  0  0  0999 V2000
    0.8356  -13.0209    0.0000 O   0  0  0  0  0  0  0  0  0  0  0  0
    2.3128  -12.7604    0.0000 P   0  0  0  0  0  0  0  0  0  0  0  0
    3.7900  -12.4999    0.0000 O   0  0  0  0  0  0  0  0  0  0  0  0
    4.7542  -13.6490    0.0000 C   0  0  0  0  0  0  0  0  0  0  0  0
    4.2412  -15.0585    0.0000 C   0  0  0  0  0  0  0  0  0  0  0  0
    5.2054  -16.2076    0.0000 C   0  0  0  0  0  0  0  0  0  0  0  0
    6.6826  -15.9471    0.0000 C   0  0  0  0  0  0  0  0  0  0  0  0
    7.1956  -14.5376    0.0000 C   0  0  0  0  0  0  0  0  0  0  0  0
    6.2314  -13.3885    0.0000 C   0  0  0  0  0  0  0  0  0  0  0  0
    2.5733  -14.2376    0.0000 O   0  0  0  0  0  0  0  0  0  0  0  0
    1.4242  -15.2018    0.0000 C   0  0  0  0  0  0  0  0  0  0  0  0
    0.0147  -14.6887    0.0000 C   0  0  0  0  0  0  0  0  0  0  0  0
   -1.1344  -15.6529    0.0000 C   0  0  0  0  0  0  0  0  0  0  0  0
   -0.8739  -17.1301    0.0000 C   0  0  0  0  0  0  0  0  0  0  0  0
    0.5356  -17.6432    0.0000 C   0  0  0  0  0  0  0  0  0  0  0  0
    1.6847  -16.6790    0.0000 C   0  0  0  0  0  0  0  0  0  0  0  0
    2.0524  -11.2832    0.0000 O   0  0  0  0  0  0  0  0  0  0  0  0
    3.2014  -10.3190    0.0000 C   0  0  0  0  0  0  0  0  0  0  0  0
    2.9410   -8.8418    0.0000 C   0  0  0  0  0  0  0  0  0  0  0  0
    4.0900   -7.8776    0.0000 C   0  0  0  0  0  0  0  0  0  0  0  0
    3.8296   -6.4004    0.0000 C   0  0  0  0  0  0  0  0  0  0  0  0
    2.4200   -5.8874    0.0000 C   0  0  0  0  0  0  0  0  0  0  0  0
    2.1595   -4.4101    0.0000 C   0  0  0  0  0  0  0  0  0  0  0  0
    3.3086   -3.4460    0.0000 O   0  0  0  0  0  0  0  0  0  0  0  0
    4.7181   -3.9590    0.0000 P   0  0  0  0  0  0  0  0  0  0  0  0
    4.2051   -5.3685    0.0000 O   0  0  0  0  0  0  0  0  0  0  0  0
    5.2312   -2.5495    0.0000 O   0  0  0  0  0  0  0  0  0  0  0  0
    4.2670   -1.4004    0.0000 C   0  0  0  0  0  0  0  0  0  0  0  0
    2.7898   -1.6609    0.0000 C   0  0  0  0  0  0  0  0  0  0  0  0
    1.8256   -0.5118    0.0000 C   0  0  0  0  0  0  0  0  0  0  0  0
    2.3386    0.8977    0.0000 C   0  0  0  0  0  0  0  0  0  0  0  0
    3.8158    1.1582    0.0000 C   0  0  0  0  0  0  0  0  0  0  0  0
    4.7800    0.0092    0.0000 C   0  0  0  0  0  0  0  0  0  0  0  0
    6.1277   -4.4720    0.0000 O   0  0  0  0  0  0  0  0  0  0  0  0
    7.2768   -3.5078    0.0000 C   0  0  0  0  0  0  0  0  0  0  0  0
    7.0163   -2.0306    0.0000 C   0  0  0  0  0  0  0  0  0  0  0  0
    8.1653   -1.0664    0.0000 C   0  0  0  0  0  0  0  0  0  0  0  0
    9.5749   -1.5795    0.0000 C   0  0  0  0  0  0  0  0  0  0  0  0
   10.7240   -0.6153    0.0000 C   0  0  0  0  0  0  0  0  0  0  0  0
   10.4635    0.8619    0.0000 C   0  0  0  0  0  0  0  0  0  0  0  0
   11.6125    1.8261    0.0000 C   0  0  0  0  0  0  0  0  0  0  0  0
   13.0221    1.3131    0.0000 C   0  0  0  0  0  0  0  0  0  0  0  0
   14.1712    2.2772    0.0000 C   0  0  0  0  0  0  0  0  0  0  0  0
   13.9107    3.7545    0.0000 C   0  0  0  0  0  0  0  0  0  0  0  0
   15.0597    4.7186    0.0000 C   0  0  0  0  0  0  0  0  0  0  0  0
   16.4693    4.2056    0.0000 C   0  0  0  0  0  0  0  0  0  0  0  0
   16.7298    2.7284    0.0000 C   0  0  0  0  0  0  0  0  0  0  0  0
   15.5807    1.7642    0.0000 C   0  0  0  0  0  0  0  0  0  0  0  0
   13.2826   -0.1641    0.0000 C   0  0  0  0  0  0  0  0  0  0  0  0
   12.1335   -1.1283    0.0000 C   0  0  0  0  0  0  0  0  0  0  0  0
    9.8354   -3.0567    0.0000 C   0  0  0  0  0  0  0  0  0  0  0  0
    8.6863   -4.0209    0.0000 C   0  0  0  0  0  0  0  0  0  0  0  0
    0.7500   -3.8971    0.0000 P   0  0  0  0  0  0  0  0  0  0  0  0
    1.5000   -2.5981    0.0000 O   0  0  0  0  0  0  0  0  0  0  0  0
    0.4895   -5.3743    0.0000 O   0  0  0  0  0  0  0  0  0  0  0  0
   -0.9200   -5.8874    0.0000 C   0  0  0  0  0  0  0  0  0  0  0  0
   -1.1805   -7.3646    0.0000 C   0  0  0  0  0  0  0  0  0  0  0  0
   -2.5900   -7.8776    0.0000 C   0  0  0  0  0  0  0  0  0  0  0  0
   -3.7391   -6.9134    0.0000 C   0  0  0  0  0  0  0  0  0  0  0  0
   -3.4786   -5.4362    0.0000 C   0  0  0  0  0  0  0  0  0  0  0  0
   -2.0691   -4.9232    0.0000 C   0  0  0  0  0  0  0  0  0  0  0  0
   -1.8086   -3.4460    0.0000 C   0  0  0  0  0  0  0  0  0  0  0  0
   -2.9577   -2.4818    0.0000 C   0  0  0  0  0  0  0  0  0  0  0  0
   -2.6972   -1.0046    0.0000 C   0  0  0  0  0  0  0  0  0  0  0  0
   -1.2877   -0.4915    0.0000 C   0  0  0  0  0  0  0  0  0  0  0  0
   -0.1386   -1.4557    0.0000 C   0  0  0  0  0  0  0  0  0  0  0  0
   -0.3991   -2.9329    0.0000 C   0  0  0  0  0  0  0  0  0  0  0  0
    1.2709   -6.8515    0.0000 C   0  0  0  0  0  0  0  0  0  0  0  0
    1.5314   -8.3287    0.0000 C   0  0  0  0  0  0  0  0  0  0  0  0
    4.6110  -10.8320    0.0000 P   0  0  0  0  0  0  0  0  0  0  0  0
    4.3913  -11.5983    0.0000 O   0  0  0  0  0  0  0  0  0  0  0  0
    4.8714   -9.3548    0.0000 O   0  0  0  0  0  0  0  0  0  0  0  0
    6.2810   -8.8418    0.0000 C   0  0  0  0  0  0  0  0  0  0  0  0
    6.5415   -7.3646    0.0000 C   0  0  0  0  0  0  0  0  0  0  0  0
    7.9510   -6.8515    0.0000 C   0  0  0  0  0  0  0  0  0  0  0  0
    9.1001   -7.8157    0.0000 C   0  0  0  0  0  0  0  0  0  0  0  0
    8.8396   -9.2929    0.0000 C   0  0  0  0  0  0  0  0  0  0  0  0
    7.4300   -9.8060    0.0000 C   0  0  0  0  0  0  0  0  0  0  0  0
    7.1696  -11.2832    0.0000 C   0  0  0  0  0  0  0  0  0  0  0  0
    8.3186  -12.2474    0.0000 C   0  0  0  0  0  0  0  0  0  0  0  0
    8.0582  -13.7246    0.0000 C   0  0  0  0  0  0  0  0  0  0  0  0
    6.6486  -14.2376    0.0000 C   0  0  0  0  0  0  0  0  0  0  0  0
    5.4996  -13.2734    0.0000 C   0  0  0  0  0  0  0  0  0  0  0  0
    5.7600  -11.7962    0.0000 C   0  0  0  0  0  0  0  0  0  0  0  0
  1  2  2  0
  2  3  1  0
  3  4  1  0
  4  5  2  0
  5  6  1  0
  6  7  2  0
  7  8  1  0
  8  9  2  0
  2 10  1  0
 10 11  1  0
 11 12  2  0
 12 13  1  0
 13 14  2  0
 14 15  1  0
 15 16  2  0
  2 17  1  0
 17 18  1  0
 18 19  1  0
 19 20  2  0
 20 21  1  0
 21 22  2  0
 22 23  1  0
 23 24  1  0
 24 25  1  0
 25 26  2  0
 25 27  1  0
 27 28  1  0
 28 29  2  0
 29 30  1  0
 30 31  2  0
 31 32  1  0
 32 33  2  0
 25 34  1  0
 34 35  1  0
 35 36  2  0
 36 37  1  0
 37 38  2  0
 38 39  1  0
 39 40  2  0
 40 41  1  0
 41 42  2  0
 42 43  1  0
 43 44  2  0
 44 45  1  0
 45 46  2  0
 46 47  1  0
 47 48  2  0
 42 49  1  0
 49 50  2  0
 38 51  1  0
 51 52  2  0
 23 53  1  0
 53 54  2  0
 53 55  1  0
 55 56  1  0
 56 57  2  0
 57 58  1  0
 58 59  2  0
 59 60  1  0
 60 61  2  0
 61 62  1  0
 62 63  2  0
 63 64  1  0
 64 65  2  0
 65 66  1  0
 66 67  2  0
 22 68  1  0
 68 69  2  0
 18 70  1  0
 70 71  2  0
 70 72  1  0
 72 73  1  0
 73 74  2  0
 74 75  1  0
 75 76  2  0
 76 77  1  0
 77 78  2  0
 78 79  1  0
 79 80  2  0
 80 81  1  0
 81 82  2  0
 82 83  1  0
 83 84  2  0
  9  4  1  0
 16 11  1  0
 69 19  1  0
 84 70  1  0
 33 28  1  0
 52 35  1  0
 67 53  1  0
 78 73  1  0
 84 79  1  0
 50 39  1  0
 61 56  1  0
 67 62  1  0
 48 43  1  0
M  END
>  <Candidate_ID>  (274) 
CAND_R2_274

>  <Candidate_Name>  (274) 
TDCA-DOPO-3-biphenyl

>  <Parent_Seed_ID>  (274) 
TRAIN_137

>  <Parent_Name>  (274) 
TDCA-DOPO-3

>  <Transformation_Code>  (274) 
biphenyl

>  <Design_Family>  (274) 
P-only

>  <Preparation_Type>  (274) 
Additive

>  <Synthesis_Level>  (274) 
B

>  <Parent_Tanimoto_r3>  (274) 
0.8333333333333334

>  <Max_Train_Tanimoto_r3>  (274) 
0.8333333333333334

>  <Risk_Flags>  (274) 
none

$$$$
CAND_R2_275 | Ti-POSS-bisDOPO-amino
     RDKit          2D

 85 95  0  0  0  0  0  0  0  0999 V2000
    3.7500   -3.8971    0.0000 C   0  0  0  0  0  0  0  0  0  0  0  0
    3.0000   -2.5981    0.0000 C   0  0  0  0  0  0  0  0  0  0  0  0
    4.0420   -1.5191    0.0000 C   0  0  0  0  0  0  0  0  0  0  0  0
    1.5000   -2.5981    0.0000 C   0  0  0  0  0  0  0  0  0  0  0  0
    0.7500   -1.2990    0.0000 Si  0  0  0  0  0  4  0  0  0  0  0  0
    1.5000    0.0000    0.0000 O   0  0  0  0  0  0  0  0  0  0  0  0
    0.7500    1.2990    0.0000 Si  0  0  0  0  0  4  0  0  0  0  0  0
    1.5000    2.5981    0.0000 C   0  0  0  0  0  0  0  0  0  0  0  0
    0.7500    3.8971    0.0000 C   0  0  0  0  0  0  0  0  0  0  0  0
    1.5000    5.1962    0.0000 C   0  0  0  0  0  0  0  0  0  0  0  0
   -0.7500    3.8971    0.0000 C   0  0  0  0  0  0  0  0  0  0  0  0
   -0.7500    1.2990    0.0000 O   0  0  0  0  0  0  0  0  0  0  0  0
   -1.5000    0.0000    0.0000 Si  0  0  0  0  0  4  0  0  0  0  0  0
   -3.0000    0.0000    0.0000 C   0  0  0  0  0  0  0  0  0  0  0  0
   -3.7500    1.2990    0.0000 C   0  0  0  0  0  0  0  0  0  0  0  0
   -5.2500    1.2990    0.0000 C   0  0  0  0  0  0  0  0  0  0  0  0
   -3.0000    2.5981    0.0000 C   0  0  0  0  0  0  0  0  0  0  0  0
   -0.7500   -1.2990    0.0000 O   0  0  0  0  0  0  0  0  0  0  0  0
   -3.0912   -0.4826    0.0000 O   0  0  0  0  0  0  0  0  0  0  0  0
   -3.8412   -1.7816    0.0000 Si  0  0  0  0  0  4  0  0  0  0  0  0
   -5.3085   -1.4697    0.0000 C   0  0  0  0  0  0  0  0  0  0  0  0
   -6.3122   -2.5844    0.0000 C   0  0  0  0  0  0  0  0  0  0  0  0
   -7.7794   -2.2726    0.0000 C   0  0  0  0  0  0  0  0  0  0  0  0
   -6.0260   -4.0569    0.0000 C   0  0  0  0  0  0  0  0  0  0  0  0
   -3.6844   -3.2734    0.0000 O   0  0  0  0  0  0  0  0  0  0  0  0
   -2.6807   -4.3881    0.0000 Si  0  0  0  0  0  4  0  0  0  0  0  0
   -3.4307   -5.6871    0.0000 C   0  0  0  0  0  0  0  0  0  0  0  0
   -4.9307   -5.6871    0.0000 C   0  0  0  0  0  0  0  0  0  0  0  0
   -5.6807   -6.9862    0.0000 C   0  0  0  0  0  0  0  0  0  0  0  0
   -5.8335   -4.4892    0.0000 C   0  0  0  0  0  0  0  0  0  0  0  0
   -1.2135   -4.7000    0.0000 O   0  0  0  0  0  0  0  0  0  0  0  0
    0.1568   -4.0899    0.0000 Ti  0  0  0  0  0  4  0  0  0  0  0  0
    1.1605   -5.2046    0.0000 O   0  0  0  0  0  0  0  0  0  0  0  0
    0.6970   -6.6312    0.0000 C   0  0  0  0  0  0  0  0  0  0  0  0
    1.7007   -7.7459    0.0000 C   0  0  0  0  0  0  0  0  0  0  0  0
   -0.7703   -6.9430    0.0000 C   0  0  0  0  0  0  0  0  0  0  0  0
    0.9068   -2.7908    0.0000 O   0  0  0  0  0  0  0  0  0  0  0  0
   -0.0000   -2.5981    0.0000 O   0  0  0  0  0  0  0  0  0  0  0  0
   -1.0037   -1.4834    0.0000 Si  0  0  0  0  0  4  0  0  0  0  0  0
   -0.2537   -0.1843    0.0000 C   0  0  0  0  0  0  0  0  0  0  0  0
   -1.0037    1.1147    0.0000 C   0  0  0  0  0  0  0  0  0  0  0  0
   -0.2537    2.4138    0.0000 C   0  0  0  0  0  0  0  0  0  0  0  0
   -2.5037    1.1147    0.0000 C   0  0  0  0  0  0  0  0  0  0  0  0
   -0.4182   -1.0373    0.0000 O   0  0  0  0  0  0  0  0  0  0  0  0
    0.9937   -1.5437    0.0000 Si  0  0  0  0  0  4  0  0  0  0  0  0
    2.2781   -2.3185    0.0000 C   0  0  0  0  0  0  0  0  0  0  0  0
    3.5913   -1.5936    0.0000 C   0  0  0  0  0  0  0  0  0  0  0  0
    4.8757   -2.3684    0.0000 C   0  0  0  0  0  0  0  0  0  0  0  0
    6.1889   -1.6435    0.0000 N   0  0  0  0  0  0  0  0  0  0  0  0
    7.4733   -2.4183    0.0000 C   0  0  0  0  0  0  0  0  0  0  0  0
    8.7865   -1.6934    0.0000 P   0  0  0  0  0  0  0  0  0  0  0  0
    7.7093   -0.6495    0.0000 O   0  0  0  0  0  0  0  0  0  0  0  0
    9.2724   -3.1125    0.0000 O   0  0  0  0  0  0  0  0  0  0  0  0
   10.7443   -3.4013    0.0000 C   0  0  0  0  0  0  0  0  0  0  0  0
   11.2302   -4.8204    0.0000 C   0  0  0  0  0  0  0  0  0  0  0  0
   12.7021   -5.1092    0.0000 C   0  0  0  0  0  0  0  0  0  0  0  0
   13.6882   -3.9789    0.0000 C   0  0  0  0  0  0  0  0  0  0  0  0
   13.2023   -2.5598    0.0000 C   0  0  0  0  0  0  0  0  0  0  0  0
   11.7304   -2.2710    0.0000 C   0  0  0  0  0  0  0  0  0  0  0  0
   11.2445   -0.8518    0.0000 C   0  0  0  0  0  0  0  0  0  0  0  0
   12.2306    0.2785    0.0000 C   0  0  0  0  0  0  0  0  0  0  0  0
   11.7447    1.6976    0.0000 C   0  0  0  0  0  0  0  0  0  0  0  0
   10.2728    1.9864    0.0000 C   0  0  0  0  0  0  0  0  0  0  0  0
    9.2867    0.8561    0.0000 C   0  0  0  0  0  0  0  0  0  0  0  0
    9.7726   -0.5630    0.0000 C   0  0  0  0  0  0  0  0  0  0  0  0
    6.2177   -0.1438    0.0000 C   0  0  0  0  0  0  0  0  0  0  0  0
    7.5309    0.5811    0.0000 P   0  0  0  0  0  0  0  0  0  0  0  0
    7.8401   -0.8866    0.0000 O   0  0  0  0  0  0  0  0  0  0  0  0
    6.5890    1.7485    0.0000 O   0  0  0  0  0  0  0  0  0  0  0  0
    7.1290    3.1479    0.0000 C   0  0  0  0  0  0  0  0  0  0  0  0
    6.1870    4.3153    0.0000 C   0  0  0  0  0  0  0  0  0  0  0  0
    6.7270    5.7147    0.0000 C   0  0  0  0  0  0  0  0  0  0  0  0
    8.2090    5.9468    0.0000 C   0  0  0  0  0  0  0  0  0  0  0  0
    8.7490    7.3462    0.0000 N   0  0  0  0  0  0  0  0  0  0  0  0
    9.1509    4.7794    0.0000 C   0  0  0  0  0  0  0  0  0  0  0  0
    8.6109    3.3800    0.0000 C   0  0  0  0  0  0  0  0  0  0  0  0
    9.5528    2.2126    0.0000 C   0  0  0  0  0  0  0  0  0  0  0  0
   11.0348    2.4447    0.0000 C   0  0  0  0  0  0  0  0  0  0  0  0
   11.9767    1.2773    0.0000 C   0  0  0  0  0  0  0  0  0  0  0  0
   11.4367   -0.1221    0.0000 C   0  0  0  0  0  0  0  0  0  0  0  0
    9.9548   -0.3542    0.0000 C   0  0  0  0  0  0  0  0  0  0  0  0
    9.0128    0.8132    0.0000 C   0  0  0  0  0  0  0  0  0  0  0  0
    1.3337   -0.0827    0.0000 O   0  0  0  0  0  0  0  0  0  0  0  0
   -0.1401   -2.5258    0.0000 O   0  0  0  0  0  0  0  0  0  0  0  0
   -2.4709   -1.1715    0.0000 O   0  0  0  0  0  0  0  0  0  0  0  0
  1  2  1  0
  2  3  1  0
  2  4  1  0
  5  4  1  1
  5  6  1  0
  6  7  1  0
  7  8  1  1
  8  9  1  0
  9 10  1  0
  9 11  1  0
  7 12  1  0
 12 13  1  0
 13 14  1  6
 14 15  1  0
 15 16  1  0
 15 17  1  0
 13 18  1  0
 13 19  1  0
 19 20  1  0
 20 21  1  6
 21 22  1  0
 22 23  1  0
 22 24  1  0
 20 25  1  0
 25 26  1  0
 26 27  1  1
 27 28  1  0
 28 29  1  0
 28 30  1  0
 26 31  1  0
 31 32  1  0
 32 33  1  0
 33 34  1  0
 34 35  1  0
 34 36  1  0
 32 37  1  0
 32 38  1  0
 38 39  1  0
 39 40  1  1
 40 41  1  0
 41 42  1  0
 41 43  1  0
 39 44  1  0
 44 45  1  0
 45 46  1  6
 46 47  1  0
 47 48  1  0
 48 49  1  0
 49 50  1  0
 50 51  1  0
 51 52  2  0
 51 53  1  0
 53 54  1  0
 54 55  2  0
 55 56  1  0
 56 57  2  0
 57 58  1  0
 58 59  2  0
 59 60  1  0
 60 61  2  0
 61 62  1  0
 62 63  2  0
 63 64  1  0
 64 65  2  0
 49 66  1  0
 66 67  1  0
 67 68  2  0
 67 69  1  0
 69 70  1  0
 70 71  2  0
 71 72  1  0
 72 73  2  0
 73 74  1  0
 73 75  1  0
 75 76  2  0
 76 77  1  0
 77 78  2  0
 78 79  1  0
 79 80  2  0
 80 81  1  0
 81 82  2  0
 45 83  1  0
 45 84  1  0
 39 85  1  0
 18  5  1  0
 85 20  1  0
 37  5  1  0
 65 51  1  0
 82 67  1  0
 83  7  1  0
 84 26  1  0
 59 54  1  0
 65 60  1  0
 76 70  1  0
 82 77  1  0
M  END
>  <Candidate_ID>  (275) 
CAND_R2_275

>  <Candidate_Name>  (275) 
Ti-POSS-bisDOPO-amino

>  <Parent_Seed_ID>  (275) 
TRAIN_112

>  <Parent_Name>  (275) 
Ti-POSS-bisDOPO

>  <Transformation_Code>  (275) 
amino

>  <Design_Family>  (275) 
P-N-Si

>  <Preparation_Type>  (275) 
Co-curing

>  <Synthesis_Level>  (275) 
B

>  <Parent_Tanimoto_r3>  (275) 
0.8461538461538461

>  <Max_Train_Tanimoto_r3>  (275) 
0.8461538461538461

>  <Risk_Flags>  (275) 
DOPO-core substitution route needs confirmation; high molecular weight

$$$$
CAND_R2_276 | Ti-POSS-bisDOPO-hydroxy
     RDKit          2D

 85 95  0  0  0  0  0  0  0  0999 V2000
    3.7500   -3.8971    0.0000 C   0  0  0  0  0  0  0  0  0  0  0  0
    3.0000   -2.5981    0.0000 C   0  0  0  0  0  0  0  0  0  0  0  0
    4.0420   -1.5191    0.0000 C   0  0  0  0  0  0  0  0  0  0  0  0
    1.5000   -2.5981    0.0000 C   0  0  0  0  0  0  0  0  0  0  0  0
    0.7500   -1.2990    0.0000 Si  0  0  0  0  0  4  0  0  0  0  0  0
    1.5000    0.0000    0.0000 O   0  0  0  0  0  0  0  0  0  0  0  0
    0.7500    1.2990    0.0000 Si  0  0  0  0  0  4  0  0  0  0  0  0
    1.5000    2.5981    0.0000 C   0  0  0  0  0  0  0  0  0  0  0  0
    0.7500    3.8971    0.0000 C   0  0  0  0  0  0  0  0  0  0  0  0
    1.5000    5.1962    0.0000 C   0  0  0  0  0  0  0  0  0  0  0  0
   -0.7500    3.8971    0.0000 C   0  0  0  0  0  0  0  0  0  0  0  0
   -0.7500    1.2990    0.0000 O   0  0  0  0  0  0  0  0  0  0  0  0
   -1.5000    0.0000    0.0000 Si  0  0  0  0  0  4  0  0  0  0  0  0
   -3.0000    0.0000    0.0000 C   0  0  0  0  0  0  0  0  0  0  0  0
   -3.7500    1.2990    0.0000 C   0  0  0  0  0  0  0  0  0  0  0  0
   -5.2500    1.2990    0.0000 C   0  0  0  0  0  0  0  0  0  0  0  0
   -3.0000    2.5981    0.0000 C   0  0  0  0  0  0  0  0  0  0  0  0
   -0.7500   -1.2990    0.0000 O   0  0  0  0  0  0  0  0  0  0  0  0
   -3.0912   -0.4826    0.0000 O   0  0  0  0  0  0  0  0  0  0  0  0
   -3.8412   -1.7816    0.0000 Si  0  0  0  0  0  4  0  0  0  0  0  0
   -5.3085   -1.4697    0.0000 C   0  0  0  0  0  0  0  0  0  0  0  0
   -6.3122   -2.5844    0.0000 C   0  0  0  0  0  0  0  0  0  0  0  0
   -7.7794   -2.2726    0.0000 C   0  0  0  0  0  0  0  0  0  0  0  0
   -6.0260   -4.0569    0.0000 C   0  0  0  0  0  0  0  0  0  0  0  0
   -3.6844   -3.2734    0.0000 O   0  0  0  0  0  0  0  0  0  0  0  0
   -2.6807   -4.3881    0.0000 Si  0  0  0  0  0  4  0  0  0  0  0  0
   -3.4307   -5.6871    0.0000 C   0  0  0  0  0  0  0  0  0  0  0  0
   -4.9307   -5.6871    0.0000 C   0  0  0  0  0  0  0  0  0  0  0  0
   -5.6807   -6.9862    0.0000 C   0  0  0  0  0  0  0  0  0  0  0  0
   -5.8335   -4.4892    0.0000 C   0  0  0  0  0  0  0  0  0  0  0  0
   -1.2135   -4.7000    0.0000 O   0  0  0  0  0  0  0  0  0  0  0  0
    0.1568   -4.0899    0.0000 Ti  0  0  0  0  0  4  0  0  0  0  0  0
    1.1605   -5.2046    0.0000 O   0  0  0  0  0  0  0  0  0  0  0  0
    0.6970   -6.6312    0.0000 C   0  0  0  0  0  0  0  0  0  0  0  0
    1.7007   -7.7459    0.0000 C   0  0  0  0  0  0  0  0  0  0  0  0
   -0.7703   -6.9430    0.0000 C   0  0  0  0  0  0  0  0  0  0  0  0
    0.9068   -2.7908    0.0000 O   0  0  0  0  0  0  0  0  0  0  0  0
   -0.0000   -2.5981    0.0000 O   0  0  0  0  0  0  0  0  0  0  0  0
   -1.0037   -1.4834    0.0000 Si  0  0  0  0  0  4  0  0  0  0  0  0
   -0.2537   -0.1843    0.0000 C   0  0  0  0  0  0  0  0  0  0  0  0
   -1.0037    1.1147    0.0000 C   0  0  0  0  0  0  0  0  0  0  0  0
   -0.2537    2.4138    0.0000 C   0  0  0  0  0  0  0  0  0  0  0  0
   -2.5037    1.1147    0.0000 C   0  0  0  0  0  0  0  0  0  0  0  0
   -0.4182   -1.0373    0.0000 O   0  0  0  0  0  0  0  0  0  0  0  0
    0.9937   -1.5437    0.0000 Si  0  0  0  0  0  4  0  0  0  0  0  0
    2.2781   -2.3185    0.0000 C   0  0  0  0  0  0  0  0  0  0  0  0
    3.5913   -1.5936    0.0000 C   0  0  0  0  0  0  0  0  0  0  0  0
    4.8757   -2.3684    0.0000 C   0  0  0  0  0  0  0  0  0  0  0  0
    6.1889   -1.6435    0.0000 N   0  0  0  0  0  0  0  0  0  0  0  0
    7.4733   -2.4183    0.0000 C   0  0  0  0  0  0  0  0  0  0  0  0
    8.7865   -1.6934    0.0000 P   0  0  0  0  0  0  0  0  0  0  0  0
    7.7093   -0.6495    0.0000 O   0  0  0  0  0  0  0  0  0  0  0  0
    9.2724   -3.1125    0.0000 O   0  0  0  0  0  0  0  0  0  0  0  0
   10.7443   -3.4013    0.0000 C   0  0  0  0  0  0  0  0  0  0  0  0
   11.2302   -4.8204    0.0000 C   0  0  0  0  0  0  0  0  0  0  0  0
   12.7021   -5.1092    0.0000 C   0  0  0  0  0  0  0  0  0  0  0  0
   13.6882   -3.9789    0.0000 C   0  0  0  0  0  0  0  0  0  0  0  0
   13.2023   -2.5598    0.0000 C   0  0  0  0  0  0  0  0  0  0  0  0
   11.7304   -2.2710    0.0000 C   0  0  0  0  0  0  0  0  0  0  0  0
   11.2445   -0.8518    0.0000 C   0  0  0  0  0  0  0  0  0  0  0  0
   12.2306    0.2785    0.0000 C   0  0  0  0  0  0  0  0  0  0  0  0
   11.7447    1.6976    0.0000 C   0  0  0  0  0  0  0  0  0  0  0  0
   10.2728    1.9864    0.0000 C   0  0  0  0  0  0  0  0  0  0  0  0
    9.2867    0.8561    0.0000 C   0  0  0  0  0  0  0  0  0  0  0  0
    9.7726   -0.5630    0.0000 C   0  0  0  0  0  0  0  0  0  0  0  0
    6.2177   -0.1438    0.0000 C   0  0  0  0  0  0  0  0  0  0  0  0
    7.5309    0.5811    0.0000 P   0  0  0  0  0  0  0  0  0  0  0  0
    7.8401   -0.8866    0.0000 O   0  0  0  0  0  0  0  0  0  0  0  0
    6.5890    1.7485    0.0000 O   0  0  0  0  0  0  0  0  0  0  0  0
    7.1290    3.1479    0.0000 C   0  0  0  0  0  0  0  0  0  0  0  0
    6.1870    4.3153    0.0000 C   0  0  0  0  0  0  0  0  0  0  0  0
    6.7270    5.7147    0.0000 C   0  0  0  0  0  0  0  0  0  0  0  0
    8.2090    5.9468    0.0000 C   0  0  0  0  0  0  0  0  0  0  0  0
    8.7490    7.3462    0.0000 O   0  0  0  0  0  0  0  0  0  0  0  0
    9.1509    4.7794    0.0000 C   0  0  0  0  0  0  0  0  0  0  0  0
    8.6109    3.3800    0.0000 C   0  0  0  0  0  0  0  0  0  0  0  0
    9.5528    2.2126    0.0000 C   0  0  0  0  0  0  0  0  0  0  0  0
   11.0348    2.4447    0.0000 C   0  0  0  0  0  0  0  0  0  0  0  0
   11.9767    1.2773    0.0000 C   0  0  0  0  0  0  0  0  0  0  0  0
   11.4367   -0.1221    0.0000 C   0  0  0  0  0  0  0  0  0  0  0  0
    9.9548   -0.3542    0.0000 C   0  0  0  0  0  0  0  0  0  0  0  0
    9.0128    0.8132    0.0000 C   0  0  0  0  0  0  0  0  0  0  0  0
    1.3337   -0.0827    0.0000 O   0  0  0  0  0  0  0  0  0  0  0  0
   -0.1401   -2.5258    0.0000 O   0  0  0  0  0  0  0  0  0  0  0  0
   -2.4709   -1.1715    0.0000 O   0  0  0  0  0  0  0  0  0  0  0  0
  1  2  1  0
  2  3  1  0
  2  4  1  0
  5  4  1  1
  5  6  1  0
  6  7  1  0
  7  8  1  1
  8  9  1  0
  9 10  1  0
  9 11  1  0
  7 12  1  0
 12 13  1  0
 13 14  1  6
 14 15  1  0
 15 16  1  0
 15 17  1  0
 13 18  1  0
 13 19  1  0
 19 20  1  0
 20 21  1  6
 21 22  1  0
 22 23  1  0
 22 24  1  0
 20 25  1  0
 25 26  1  0
 26 27  1  1
 27 28  1  0
 28 29  1  0
 28 30  1  0
 26 31  1  0
 31 32  1  0
 32 33  1  0
 33 34  1  0
 34 35  1  0
 34 36  1  0
 32 37  1  0
 32 38  1  0
 38 39  1  0
 39 40  1  1
 40 41  1  0
 41 42  1  0
 41 43  1  0
 39 44  1  0
 44 45  1  0
 45 46  1  6
 46 47  1  0
 47 48  1  0
 48 49  1  0
 49 50  1  0
 50 51  1  0
 51 52  2  0
 51 53  1  0
 53 54  1  0
 54 55  2  0
 55 56  1  0
 56 57  2  0
 57 58  1  0
 58 59  2  0
 59 60  1  0
 60 61  2  0
 61 62  1  0
 62 63  2  0
 63 64  1  0
 64 65  2  0
 49 66  1  0
 66 67  1  0
 67 68  2  0
 67 69  1  0
 69 70  1  0
 70 71  2  0
 71 72  1  0
 72 73  2  0
 73 74  1  0
 73 75  1  0
 75 76  2  0
 76 77  1  0
 77 78  2  0
 78 79  1  0
 79 80  2  0
 80 81  1  0
 81 82  2  0
 45 83  1  0
 45 84  1  0
 39 85  1  0
 18  5  1  0
 85 20  1  0
 37  5  1  0
 65 51  1  0
 82 67  1  0
 83  7  1  0
 84 26  1  0
 59 54  1  0
 65 60  1  0
 76 70  1  0
 82 77  1  0
M  END
>  <Candidate_ID>  (276) 
CAND_R2_276

>  <Candidate_Name>  (276) 
Ti-POSS-bisDOPO-hydroxy

>  <Parent_Seed_ID>  (276) 
TRAIN_112

>  <Parent_Name>  (276) 
Ti-POSS-bisDOPO

>  <Transformation_Code>  (276) 
hydroxy

>  <Design_Family>  (276) 
P-N-Si

>  <Preparation_Type>  (276) 
Additive

>  <Synthesis_Level>  (276) 
B

>  <Parent_Tanimoto_r3>  (276) 
0.8461538461538461

>  <Max_Train_Tanimoto_r3>  (276) 
0.8461538461538461

>  <Risk_Flags>  (276) 
DOPO-core substitution route needs confirmation; high molecular weight

$$$$
CAND_R2_277 | Ti-POSS-bisDOPO-boronic-acid
     RDKit          2D

 87 97  0  0  0  0  0  0  0  0999 V2000
    3.7500   -3.8971    0.0000 C   0  0  0  0  0  0  0  0  0  0  0  0
    3.0000   -2.5981    0.0000 C   0  0  0  0  0  0  0  0  0  0  0  0
    4.0420   -1.5191    0.0000 C   0  0  0  0  0  0  0  0  0  0  0  0
    1.5000   -2.5981    0.0000 C   0  0  0  0  0  0  0  0  0  0  0  0
    0.7500   -1.2990    0.0000 Si  0  0  0  0  0  4  0  0  0  0  0  0
    1.5000    0.0000    0.0000 O   0  0  0  0  0  0  0  0  0  0  0  0
    0.7500    1.2990    0.0000 Si  0  0  0  0  0  4  0  0  0  0  0  0
    1.5000    2.5981    0.0000 C   0  0  0  0  0  0  0  0  0  0  0  0
    0.7500    3.8971    0.0000 C   0  0  0  0  0  0  0  0  0  0  0  0
    1.5000    5.1962    0.0000 C   0  0  0  0  0  0  0  0  0  0  0  0
   -0.7500    3.8971    0.0000 C   0  0  0  0  0  0  0  0  0  0  0  0
   -0.7500    1.2990    0.0000 O   0  0  0  0  0  0  0  0  0  0  0  0
   -1.5000    0.0000    0.0000 Si  0  0  0  0  0  4  0  0  0  0  0  0
   -3.0000    0.0000    0.0000 C   0  0  0  0  0  0  0  0  0  0  0  0
   -3.7500    1.2990    0.0000 C   0  0  0  0  0  0  0  0  0  0  0  0
   -5.2500    1.2990    0.0000 C   0  0  0  0  0  0  0  0  0  0  0  0
   -3.0000    2.5981    0.0000 C   0  0  0  0  0  0  0  0  0  0  0  0
   -0.7500   -1.2990    0.0000 O   0  0  0  0  0  0  0  0  0  0  0  0
   -3.0912   -0.4826    0.0000 O   0  0  0  0  0  0  0  0  0  0  0  0
   -3.8412   -1.7816    0.0000 Si  0  0  0  0  0  4  0  0  0  0  0  0
   -5.3085   -1.4697    0.0000 C   0  0  0  0  0  0  0  0  0  0  0  0
   -6.3122   -2.5844    0.0000 C   0  0  0  0  0  0  0  0  0  0  0  0
   -7.7794   -2.2726    0.0000 C   0  0  0  0  0  0  0  0  0  0  0  0
   -6.0260   -4.0569    0.0000 C   0  0  0  0  0  0  0  0  0  0  0  0
   -3.6844   -3.2734    0.0000 O   0  0  0  0  0  0  0  0  0  0  0  0
   -2.6807   -4.3881    0.0000 Si  0  0  0  0  0  4  0  0  0  0  0  0
   -3.4307   -5.6871    0.0000 C   0  0  0  0  0  0  0  0  0  0  0  0
   -4.9307   -5.6871    0.0000 C   0  0  0  0  0  0  0  0  0  0  0  0
   -5.6807   -6.9862    0.0000 C   0  0  0  0  0  0  0  0  0  0  0  0
   -5.8335   -4.4892    0.0000 C   0  0  0  0  0  0  0  0  0  0  0  0
   -1.2135   -4.7000    0.0000 O   0  0  0  0  0  0  0  0  0  0  0  0
    0.1568   -4.0899    0.0000 Ti  0  0  0  0  0  4  0  0  0  0  0  0
    1.1605   -5.2046    0.0000 O   0  0  0  0  0  0  0  0  0  0  0  0
    0.6970   -6.6312    0.0000 C   0  0  0  0  0  0  0  0  0  0  0  0
    1.7007   -7.7459    0.0000 C   0  0  0  0  0  0  0  0  0  0  0  0
   -0.7703   -6.9430    0.0000 C   0  0  0  0  0  0  0  0  0  0  0  0
    0.9068   -2.7908    0.0000 O   0  0  0  0  0  0  0  0  0  0  0  0
   -0.0000   -2.5981    0.0000 O   0  0  0  0  0  0  0  0  0  0  0  0
   -1.0037   -1.4834    0.0000 Si  0  0  0  0  0  4  0  0  0  0  0  0
   -0.2537   -0.1843    0.0000 C   0  0  0  0  0  0  0  0  0  0  0  0
   -1.0037    1.1147    0.0000 C   0  0  0  0  0  0  0  0  0  0  0  0
   -0.2537    2.4138    0.0000 C   0  0  0  0  0  0  0  0  0  0  0  0
   -2.5037    1.1147    0.0000 C   0  0  0  0  0  0  0  0  0  0  0  0
   -0.4182   -1.0373    0.0000 O   0  0  0  0  0  0  0  0  0  0  0  0
    0.9937   -1.5437    0.0000 Si  0  0  0  0  0  4  0  0  0  0  0  0
    2.2781   -2.3185    0.0000 C   0  0  0  0  0  0  0  0  0  0  0  0
    3.5913   -1.5936    0.0000 C   0  0  0  0  0  0  0  0  0  0  0  0
    4.8757   -2.3684    0.0000 C   0  0  0  0  0  0  0  0  0  0  0  0
    6.1889   -1.6435    0.0000 N   0  0  0  0  0  0  0  0  0  0  0  0
    7.4733   -2.4183    0.0000 C   0  0  0  0  0  0  0  0  0  0  0  0
    8.7865   -1.6934    0.0000 P   0  0  0  0  0  0  0  0  0  0  0  0
    7.7093   -0.6495    0.0000 O   0  0  0  0  0  0  0  0  0  0  0  0
    9.2724   -3.1125    0.0000 O   0  0  0  0  0  0  0  0  0  0  0  0
   10.7443   -3.4013    0.0000 C   0  0  0  0  0  0  0  0  0  0  0  0
   11.2302   -4.8204    0.0000 C   0  0  0  0  0  0  0  0  0  0  0  0
   12.7021   -5.1092    0.0000 C   0  0  0  0  0  0  0  0  0  0  0  0
   13.6882   -3.9789    0.0000 C   0  0  0  0  0  0  0  0  0  0  0  0
   13.2023   -2.5598    0.0000 C   0  0  0  0  0  0  0  0  0  0  0  0
   11.7304   -2.2710    0.0000 C   0  0  0  0  0  0  0  0  0  0  0  0
   11.2445   -0.8518    0.0000 C   0  0  0  0  0  0  0  0  0  0  0  0
   12.2306    0.2785    0.0000 C   0  0  0  0  0  0  0  0  0  0  0  0
   11.7447    1.6976    0.0000 C   0  0  0  0  0  0  0  0  0  0  0  0
   10.2728    1.9864    0.0000 C   0  0  0  0  0  0  0  0  0  0  0  0
    9.2867    0.8561    0.0000 C   0  0  0  0  0  0  0  0  0  0  0  0
    9.7726   -0.5630    0.0000 C   0  0  0  0  0  0  0  0  0  0  0  0
    6.2177   -0.1438    0.0000 C   0  0  0  0  0  0  0  0  0  0  0  0
    7.5309    0.5811    0.0000 P   0  0  0  0  0  0  0  0  0  0  0  0
    7.8401   -0.8866    0.0000 O   0  0  0  0  0  0  0  0  0  0  0  0
    6.5890    1.7485    0.0000 O   0  0  0  0  0  0  0  0  0  0  0  0
    7.1290    3.1479    0.0000 C   0  0  0  0  0  0  0  0  0  0  0  0
    6.1870    4.3153    0.0000 C   0  0  0  0  0  0  0  0  0  0  0  0
    6.7270    5.7147    0.0000 C   0  0  0  0  0  0  0  0  0  0  0  0
    8.2090    5.9468    0.0000 C   0  0  0  0  0  0  0  0  0  0  0  0
    8.7490    7.3462    0.0000 B   0  0  0  0  0  0  0  0  0  0  0  0
   10.2309    7.5783    0.0000 O   0  0  0  0  0  0  0  0  0  0  0  0
    7.8070    8.5136    0.0000 O   0  0  0  0  0  0  0  0  0  0  0  0
    9.1509    4.7794    0.0000 C   0  0  0  0  0  0  0  0  0  0  0  0
    8.6109    3.3800    0.0000 C   0  0  0  0  0  0  0  0  0  0  0  0
    9.5528    2.2126    0.0000 C   0  0  0  0  0  0  0  0  0  0  0  0
   11.0348    2.4447    0.0000 C   0  0  0  0  0  0  0  0  0  0  0  0
   11.9767    1.2773    0.0000 C   0  0  0  0  0  0  0  0  0  0  0  0
   11.4367   -0.1221    0.0000 C   0  0  0  0  0  0  0  0  0  0  0  0
    9.9548   -0.3542    0.0000 C   0  0  0  0  0  0  0  0  0  0  0  0
    9.0128    0.8132    0.0000 C   0  0  0  0  0  0  0  0  0  0  0  0
    1.3337   -0.0827    0.0000 O   0  0  0  0  0  0  0  0  0  0  0  0
   -0.1401   -2.5258    0.0000 O   0  0  0  0  0  0  0  0  0  0  0  0
   -2.4709   -1.1715    0.0000 O   0  0  0  0  0  0  0  0  0  0  0  0
  1  2  1  0
  2  3  1  0
  2  4  1  0
  5  4  1  1
  5  6  1  0
  6  7  1  0
  7  8  1  1
  8  9  1  0
  9 10  1  0
  9 11  1  0
  7 12  1  0
 12 13  1  0
 13 14  1  6
 14 15  1  0
 15 16  1  0
 15 17  1  0
 13 18  1  0
 13 19  1  0
 19 20  1  0
 20 21  1  6
 21 22  1  0
 22 23  1  0
 22 24  1  0
 20 25  1  0
 25 26  1  0
 26 27  1  1
 27 28  1  0
 28 29  1  0
 28 30  1  0
 26 31  1  0
 31 32  1  0
 32 33  1  0
 33 34  1  0
 34 35  1  0
 34 36  1  0
 32 37  1  0
 32 38  1  0
 38 39  1  0
 39 40  1  1
 40 41  1  0
 41 42  1  0
 41 43  1  0
 39 44  1  0
 44 45  1  0
 45 46  1  6
 46 47  1  0
 47 48  1  0
 48 49  1  0
 49 50  1  0
 50 51  1  0
 51 52  2  0
 51 53  1  0
 53 54  1  0
 54 55  2  0
 55 56  1  0
 56 57  2  0
 57 58  1  0
 58 59  2  0
 59 60  1  0
 60 61  2  0
 61 62  1  0
 62 63  2  0
 63 64  1  0
 64 65  2  0
 49 66  1  0
 66 67  1  0
 67 68  2  0
 67 69  1  0
 69 70  1  0
 70 71  2  0
 71 72  1  0
 72 73  2  0
 73 74  1  0
 74 75  1  0
 74 76  1  0
 73 77  1  0
 77 78  2  0
 78 79  1  0
 79 80  2  0
 80 81  1  0
 81 82  2  0
 82 83  1  0
 83 84  2  0
 45 85  1  0
 45 86  1  0
 39 87  1  0
 18  5  1  0
 87 20  1  0
 37  5  1  0
 65 51  1  0
 84 67  1  0
 85  7  1  0
 86 26  1  0
 59 54  1  0
 65 60  1  0
 78 70  1  0
 84 79  1  0
M  END
>  <Candidate_ID>  (277) 
CAND_R2_277

>  <Candidate_Name>  (277) 
Ti-POSS-bisDOPO-boronic-acid

>  <Parent_Seed_ID>  (277) 
TRAIN_112

>  <Parent_Name>  (277) 
Ti-POSS-bisDOPO

>  <Transformation_Code>  (277) 
boronic_acid

>  <Design_Family>  (277) 
P-N-Si-B

>  <Preparation_Type>  (277) 
Additive

>  <Synthesis_Level>  (277) 
B

>  <Parent_Tanimoto_r3>  (277) 
0.822429906542056

>  <Max_Train_Tanimoto_r3>  (277) 
0.822429906542056

>  <Risk_Flags>  (277) 
DOPO-core substitution route needs confirmation; high molecular weight

$$$$
CAND_R2_278 | Ti-POSS-bisDOPO-trimethoxysilyl
     RDKit          2D

 91101  0  0  0  0  0  0  0  0999 V2000
   -9.0001   -9.3187    0.0000 C   0  0  0  0  0  0  0  0  0  0  0  0
   -8.4382   -7.9280    0.0000 O   0  0  0  0  0  0  0  0  0  0  0  0
   -6.9528   -7.7192    0.0000 Si  0  0  0  0  0  4  0  0  0  0  0  0
   -7.1616   -6.2338    0.0000 O   0  0  0  0  0  0  0  0  0  0  0  0
   -8.5524   -5.6719    0.0000 C   0  0  0  0  0  0  0  0  0  0  0  0
   -6.7441   -9.2046    0.0000 O   0  0  0  0  0  0  0  0  0  0  0  0
   -7.9261  -10.1281    0.0000 C   0  0  0  0  0  0  0  0  0  0  0  0
   -5.4674   -7.5104    0.0000 C   0  0  0  0  0  0  0  0  0  0  0  0
   -4.9055   -6.1197    0.0000 C   0  0  0  0  0  0  0  0  0  0  0  0
   -3.4201   -5.9109    0.0000 C   0  0  0  0  0  0  0  0  0  0  0  0
   -2.4966   -7.0929    0.0000 C   0  0  0  0  0  0  0  0  0  0  0  0
   -3.0585   -8.4837    0.0000 C   0  0  0  0  0  0  0  0  0  0  0  0
   -4.5439   -8.6924    0.0000 C   0  0  0  0  0  0  0  0  0  0  0  0
   -2.1350   -9.6657    0.0000 C   0  0  0  0  0  0  0  0  0  0  0  0
   -2.6970  -11.0565    0.0000 C   0  0  0  0  0  0  0  0  0  0  0  0
   -1.7735  -12.2385    0.0000 C   0  0  0  0  0  0  0  0  0  0  0  0
   -0.2881  -12.0297    0.0000 C   0  0  0  0  0  0  0  0  0  0  0  0
    0.2738  -10.6390    0.0000 C   0  0  0  0  0  0  0  0  0  0  0  0
   -0.6496   -9.4569    0.0000 C   0  0  0  0  0  0  0  0  0  0  0  0
   -0.0877   -8.0662    0.0000 P   0  0  0  0  0  0  0  0  0  0  0  0
    1.2717   -8.7001    0.0000 O   0  0  0  0  0  0  0  0  0  0  0  0
    0.9160   -6.9515    0.0000 C   0  0  0  0  0  0  0  0  0  0  0  0
    2.3832   -7.2633    0.0000 N   0  0  0  0  0  0  0  0  0  0  0  0
    3.3869   -6.1486    0.0000 C   0  0  0  0  0  0  0  0  0  0  0  0
    2.9234   -4.7220    0.0000 C   0  0  0  0  0  0  0  0  0  0  0  0
    3.9271   -3.6073    0.0000 C   0  0  0  0  0  0  0  0  0  0  0  0
    3.4635   -2.1807    0.0000 Si  0  0  0  0  0  4  0  0  0  0  0  0
    1.9635   -2.1807    0.0000 O   0  0  0  0  0  0  0  0  0  0  0  0
    0.7500   -1.2990    0.0000 Si  0  0  0  0  0  4  0  0  0  0  0  0
    1.5000   -2.5981    0.0000 C   0  0  0  0  0  0  0  0  0  0  0  0
    0.7500   -3.8971    0.0000 C   0  0  0  0  0  0  0  0  0  0  0  0
    1.5000   -5.1962    0.0000 C   0  0  0  0  0  0  0  0  0  0  0  0
   -0.7500   -3.8971    0.0000 C   0  0  0  0  0  0  0  0  0  0  0  0
    1.5000    0.0000    0.0000 O   0  0  0  0  0  0  0  0  0  0  0  0
    0.7500    1.2990    0.0000 Si  0  0  0  0  0  4  0  0  0  0  0  0
    1.5000    2.5981    0.0000 C   0  0  0  0  0  0  0  0  0  0  0  0
    0.7500    3.8971    0.0000 C   0  0  0  0  0  0  0  0  0  0  0  0
    1.3361    5.2779    0.0000 C   0  0  0  0  0  0  0  0  0  0  0  0
   -0.7500    3.8971    0.0000 C   0  0  0  0  0  0  0  0  0  0  0  0
   -0.7500    1.2990    0.0000 O   0  0  0  0  0  0  0  0  0  0  0  0
   -1.5000    0.0000    0.0000 Si  0  0  0  0  0  4  0  0  0  0  0  0
   -3.0000    0.0000    0.0000 C   0  0  0  0  0  0  0  0  0  0  0  0
   -3.7500    1.2990    0.0000 C   0  0  0  0  0  0  0  0  0  0  0  0
   -5.2500    1.2990    0.0000 C   0  0  0  0  0  0  0  0  0  0  0  0
   -3.0000    2.5981    0.0000 C   0  0  0  0  0  0  0  0  0  0  0  0
   -0.7500   -1.2990    0.0000 O   0  0  0  0  0  0  0  0  0  0  0  0
    1.3831    1.2691    0.0000 O   0  0  0  0  0  0  0  0  0  0  0  0
    2.8005    1.7600    0.0000 Si  0  0  0  0  0  4  0  0  0  0  0  0
    2.7717    3.2597    0.0000 C   0  0  0  0  0  0  0  0  0  0  0  0
    1.4585    3.9846    0.0000 C   0  0  0  0  0  0  0  0  0  0  0  0
    1.6127    5.4767    0.0000 C   0  0  0  0  0  0  0  0  0  0  0  0
    0.1741    3.2098    0.0000 C   0  0  0  0  0  0  0  0  0  0  0  0
    1.7144   -1.0802    0.0000 O   0  0  0  0  0  0  0  0  0  0  0  0
    3.0443   -0.3864    0.0000 Si  0  0  0  0  0  4  0  0  0  0  0  0
    4.1151   -1.4368    0.0000 C   0  0  0  0  0  0  0  0  0  0  0  0
    3.7408   -2.8894    0.0000 C   0  0  0  0  0  0  0  0  0  0  0  0
    4.8116   -3.9398    0.0000 C   0  0  0  0  0  0  0  0  0  0  0  0
    2.2957   -3.2915    0.0000 C   0  0  0  0  0  0  0  0  0  0  0  0
    3.7124    0.9566    0.0000 O   0  0  0  0  0  0  0  0  0  0  0  0
    3.4635    2.4358    0.0000 Ti  0  0  0  0  0  4  0  0  0  0  0  0
    3.9271    3.8624    0.0000 O   0  0  0  0  0  0  0  0  0  0  0  0
    5.3943    4.1743    0.0000 C   0  0  0  0  0  0  0  0  0  0  0  0
    5.8578    5.6008    0.0000 C   0  0  0  0  0  0  0  0  0  0  0  0
    6.3980    3.0595    0.0000 C   0  0  0  0  0  0  0  0  0  0  0  0
    1.9635    2.4358    0.0000 O   0  0  0  0  0  0  0  0  0  0  0  0
    4.6771    1.5541    0.0000 O   0  0  0  0  0  0  0  0  0  0  0  0
    5.1406    0.1275    0.0000 Si  0  0  0  0  0  4  0  0  0  0  0  0
    6.6406    0.1275    0.0000 C   0  0  0  0  0  0  0  0  0  0  0  0
    7.3906   -1.1715    0.0000 C   0  0  0  0  0  0  0  0  0  0  0  0
    8.8906   -1.1715    0.0000 C   0  0  0  0  0  0  0  0  0  0  0  0
    6.6406   -2.4705    0.0000 C   0  0  0  0  0  0  0  0  0  0  0  0
    4.6771   -1.2990    0.0000 O   0  0  0  0  0  0  0  0  0  0  0  0
    4.2358    1.3239    0.0000 O   0  0  0  0  0  0  0  0  0  0  0  0
    3.5903   -0.6861    0.0000 O   0  0  0  0  0  0  0  0  0  0  0  0
    2.8467   -8.6899    0.0000 C   0  0  0  0  0  0  0  0  0  0  0  0
    1.8430   -9.8046    0.0000 P   0  0  0  0  0  0  0  0  0  0  0  0
    1.0705   -8.5189    0.0000 O   0  0  0  0  0  0  0  0  0  0  0  0
    3.1151  -10.5995    0.0000 O   0  0  0  0  0  0  0  0  0  0  0  0
    3.0627  -12.0986    0.0000 C   0  0  0  0  0  0  0  0  0  0  0  0
    4.3348  -12.8935    0.0000 C   0  0  0  0  0  0  0  0  0  0  0  0
    4.2825  -14.3926    0.0000 C   0  0  0  0  0  0  0  0  0  0  0  0
    2.9580  -15.0968    0.0000 C   0  0  0  0  0  0  0  0  0  0  0  0
    1.6860  -14.3019    0.0000 C   0  0  0  0  0  0  0  0  0  0  0  0
    1.7383  -12.8028    0.0000 C   0  0  0  0  0  0  0  0  0  0  0  0
    0.4662  -12.0079    0.0000 C   0  0  0  0  0  0  0  0  0  0  0  0
   -0.8582  -12.7121    0.0000 C   0  0  0  0  0  0  0  0  0  0  0  0
   -2.1302  -11.9172    0.0000 C   0  0  0  0  0  0  0  0  0  0  0  0
   -2.0779  -10.4182    0.0000 C   0  0  0  0  0  0  0  0  0  0  0  0
   -0.7535   -9.7140    0.0000 C   0  0  0  0  0  0  0  0  0  0  0  0
    0.5186  -10.5088    0.0000 C   0  0  0  0  0  0  0  0  0  0  0  0
   -1.0112   -6.8842    0.0000 O   0  0  0  0  0  0  0  0  0  0  0  0
  1  2  1  0
  2  3  1  0
  3  4  1  0
  4  5  1  0
  3  6  1  0
  6  7  1  0
  3  8  1  0
  8  9  2  0
  9 10  1  0
 10 11  2  0
 11 12  1  0
 12 13  2  0
 12 14  1  0
 14 15  2  0
 15 16  1  0
 16 17  2  0
 17 18  1  0
 18 19  2  0
 19 20  1  0
 20 21  2  0
 20 22  1  0
 22 23  1  0
 23 24  1  0
 24 25  1  0
 25 26  1  0
 27 26  1  1
 27 28  1  0
 28 29  1  0
 29 30  1  1
 30 31  1  0
 31 32  1  0
 31 33  1  0
 29 34  1  0
 34 35  1  0
 35 36  1  6
 36 37  1  0
 37 38  1  0
 37 39  1  0
 35 40  1  0
 40 41  1  0
 41 42  1  6
 42 43  1  0
 43 44  1  0
 43 45  1  0
 41 46  1  0
 41 47  1  0
 47 48  1  0
 48 49  1  1
 49 50  1  0
 50 51  1  0
 50 52  1  0
 48 53  1  0
 53 54  1  0
 54 55  1  6
 55 56  1  0
 56 57  1  0
 56 58  1  0
 54 59  1  0
 59 60  1  0
 60 61  1  0
 61 62  1  0
 62 63  1  0
 62 64  1  0
 60 65  1  0
 60 66  1  0
 66 67  1  0
 67 68  1  6
 68 69  1  0
 69 70  1  0
 69 71  1  0
 67 72  1  0
 67 73  1  0
 54 74  1  0
 23 75  1  0
 75 76  1  0
 76 77  2  0
 76 78  1  0
 78 79  1  0
 79 80  2  0
 80 81  1  0
 81 82  2  0
 82 83  1  0
 83 84  2  0
 84 85  1  0
 85 86  2  0
 86 87  1  0
 87 88  2  0
 88 89  1  0
 89 90  2  0
 20 91  1  0
 13  8  1  0
 19 14  1  0
 72 27  1  0
 90 76  1  0
 91 11  1  0
 74 27  1  0
 84 79  1  0
 90 85  1  0
 46 29  1  0
 73 48  1  0
 65 35  1  0
M  END
>  <Candidate_ID>  (278) 
CAND_R2_278

>  <Candidate_Name>  (278) 
Ti-POSS-bisDOPO-trimethoxysilyl

>  <Parent_Seed_ID>  (278) 
TRAIN_112

>  <Parent_Name>  (278) 
Ti-POSS-bisDOPO

>  <Transformation_Code>  (278) 
trimethoxysilyl

>  <Design_Family>  (278) 
P-N-Si

>  <Preparation_Type>  (278) 
Additive + Secondary Crosslinking

>  <Synthesis_Level>  (278) 
B

>  <Parent_Tanimoto_r3>  (278) 
0.8073394495412844

>  <Max_Train_Tanimoto_r3>  (278) 
0.8073394495412844

>  <Risk_Flags>  (278) 
DOPO-core substitution route needs confirmation; high molecular weight

$$$$
CAND_R2_279 | Ti-POSS-bisDOPO-disiloxane
     RDKit          2D

 92102  0  0  0  0  0  0  0  0999 V2000
    3.7500   -3.8971    0.0000 C   0  0  0  0  0  0  0  0  0  0  0  0
    3.0000   -2.5981    0.0000 C   0  0  0  0  0  0  0  0  0  0  0  0
    4.0420   -1.5191    0.0000 C   0  0  0  0  0  0  0  0  0  0  0  0
    1.5000   -2.5981    0.0000 C   0  0  0  0  0  0  0  0  0  0  0  0
    0.7500   -1.2990    0.0000 Si  0  0  0  0  0  4  0  0  0  0  0  0
    1.5000    0.0000    0.0000 O   0  0  0  0  0  0  0  0  0  0  0  0
    0.7500    1.2990    0.0000 Si  0  0  0  0  0  4  0  0  0  0  0  0
    1.5000    2.5981    0.0000 C   0  0  0  0  0  0  0  0  0  0  0  0
    0.7500    3.8971    0.0000 C   0  0  0  0  0  0  0  0  0  0  0  0
    1.5000    5.1962    0.0000 C   0  0  0  0  0  0  0  0  0  0  0  0
   -0.7500    3.8971    0.0000 C   0  0  0  0  0  0  0  0  0  0  0  0
   -0.7500    1.2990    0.0000 O   0  0  0  0  0  0  0  0  0  0  0  0
   -1.5000    0.0000    0.0000 Si  0  0  0  0  0  4  0  0  0  0  0  0
   -3.0000    0.0000    0.0000 C   0  0  0  0  0  0  0  0  0  0  0  0
   -3.7500    1.2990    0.0000 C   0  0  0  0  0  0  0  0  0  0  0  0
   -5.2500    1.2990    0.0000 C   0  0  0  0  0  0  0  0  0  0  0  0
   -3.0000    2.5981    0.0000 C   0  0  0  0  0  0  0  0  0  0  0  0
   -0.7500   -1.2990    0.0000 O   0  0  0  0  0  0  0  0  0  0  0  0
   -3.0912   -0.4826    0.0000 O   0  0  0  0  0  0  0  0  0  0  0  0
   -3.8412   -1.7816    0.0000 Si  0  0  0  0  0  4  0  0  0  0  0  0
   -5.3085   -1.4697    0.0000 C   0  0  0  0  0  0  0  0  0  0  0  0
   -6.3122   -2.5844    0.0000 C   0  0  0  0  0  0  0  0  0  0  0  0
   -7.7794   -2.2726    0.0000 C   0  0  0  0  0  0  0  0  0  0  0  0
   -6.0260   -4.0569    0.0000 C   0  0  0  0  0  0  0  0  0  0  0  0
   -3.6844   -3.2734    0.0000 O   0  0  0  0  0  0  0  0  0  0  0  0
   -2.6807   -4.3881    0.0000 Si  0  0  0  0  0  4  0  0  0  0  0  0
   -3.4307   -5.6871    0.0000 C   0  0  0  0  0  0  0  0  0  0  0  0
   -4.9307   -5.6871    0.0000 C   0  0  0  0  0  0  0  0  0  0  0  0
   -5.6807   -6.9862    0.0000 C   0  0  0  0  0  0  0  0  0  0  0  0
   -5.8335   -4.4892    0.0000 C   0  0  0  0  0  0  0  0  0  0  0  0
   -1.2135   -4.7000    0.0000 O   0  0  0  0  0  0  0  0  0  0  0  0
    0.1568   -4.0899    0.0000 Ti  0  0  0  0  0  4  0  0  0  0  0  0
    1.1605   -5.2046    0.0000 O   0  0  0  0  0  0  0  0  0  0  0  0
    0.6970   -6.6312    0.0000 C   0  0  0  0  0  0  0  0  0  0  0  0
    1.7007   -7.7459    0.0000 C   0  0  0  0  0  0  0  0  0  0  0  0
   -0.7703   -6.9430    0.0000 C   0  0  0  0  0  0  0  0  0  0  0  0
    0.9068   -2.7908    0.0000 O   0  0  0  0  0  0  0  0  0  0  0  0
   -0.0000   -2.5981    0.0000 O   0  0  0  0  0  0  0  0  0  0  0  0
   -1.0037   -1.4834    0.0000 Si  0  0  0  0  0  4  0  0  0  0  0  0
   -0.2537   -0.1843    0.0000 C   0  0  0  0  0  0  0  0  0  0  0  0
   -1.0037    1.1147    0.0000 C   0  0  0  0  0  0  0  0  0  0  0  0
   -0.2537    2.4138    0.0000 C   0  0  0  0  0  0  0  0  0  0  0  0
   -2.5037    1.1147    0.0000 C   0  0  0  0  0  0  0  0  0  0  0  0
   -0.4182   -1.0373    0.0000 O   0  0  0  0  0  0  0  0  0  0  0  0
    0.9937   -1.5437    0.0000 Si  0  0  0  0  0  4  0  0  0  0  0  0
    2.2781   -2.3185    0.0000 C   0  0  0  0  0  0  0  0  0  0  0  0
    3.5913   -1.5936    0.0000 C   0  0  0  0  0  0  0  0  0  0  0  0
    4.8757   -2.3684    0.0000 C   0  0  0  0  0  0  0  0  0  0  0  0
    6.1889   -1.6435    0.0000 N   0  0  0  0  0  0  0  0  0  0  0  0
    7.4733   -2.4183    0.0000 C   0  0  0  0  0  0  0  0  0  0  0  0
    8.7865   -1.6934    0.0000 P   0  0  0  0  0  0  0  0  0  0  0  0
    7.7093   -0.6495    0.0000 O   0  0  0  0  0  0  0  0  0  0  0  0
    9.2724   -3.1125    0.0000 O   0  0  0  0  0  0  0  0  0  0  0  0
   10.7443   -3.4013    0.0000 C   0  0  0  0  0  0  0  0  0  0  0  0
   11.2302   -4.8204    0.0000 C   0  0  0  0  0  0  0  0  0  0  0  0
   12.7021   -5.1092    0.0000 C   0  0  0  0  0  0  0  0  0  0  0  0
   13.6882   -3.9789    0.0000 C   0  0  0  0  0  0  0  0  0  0  0  0
   13.2023   -2.5598    0.0000 C   0  0  0  0  0  0  0  0  0  0  0  0
   11.7304   -2.2710    0.0000 C   0  0  0  0  0  0  0  0  0  0  0  0
   11.2445   -0.8518    0.0000 C   0  0  0  0  0  0  0  0  0  0  0  0
   12.2306    0.2785    0.0000 C   0  0  0  0  0  0  0  0  0  0  0  0
   11.7447    1.6976    0.0000 C   0  0  0  0  0  0  0  0  0  0  0  0
   10.2728    1.9864    0.0000 C   0  0  0  0  0  0  0  0  0  0  0  0
    9.2867    0.8561    0.0000 C   0  0  0  0  0  0  0  0  0  0  0  0
    9.7726   -0.5630    0.0000 C   0  0  0  0  0  0  0  0  0  0  0  0
    6.2177   -0.1438    0.0000 C   0  0  0  0  0  0  0  0  0  0  0  0
    7.5309    0.5811    0.0000 P   0  0  0  0  0  0  0  0  0  0  0  0
    7.8401   -0.8866    0.0000 O   0  0  0  0  0  0  0  0  0  0  0  0
    6.5890    1.7485    0.0000 O   0  0  0  0  0  0  0  0  0  0  0  0
    7.1290    3.1479    0.0000 C   0  0  0  0  0  0  0  0  0  0  0  0
    6.1870    4.3153    0.0000 C   0  0  0  0  0  0  0  0  0  0  0  0
    6.7270    5.7147    0.0000 C   0  0  0  0  0  0  0  0  0  0  0  0
    8.2090    5.9468    0.0000 C   0  0  0  0  0  0  0  0  0  0  0  0
    8.7490    7.3462    0.0000 Si  0  0  0  0  0  4  0  0  0  0  0  0
    7.3495    7.8862    0.0000 C   0  0  0  0  0  0  0  0  0  0  0  0
   10.1484    6.8062    0.0000 C   0  0  0  0  0  0  0  0  0  0  0  0
    9.2890    8.7457    0.0000 O   0  0  0  0  0  0  0  0  0  0  0  0
    8.3470    9.9130    0.0000 Si  0  0  0  0  0  4  0  0  0  0  0  0
    9.5144   10.8550    0.0000 C   0  0  0  0  0  0  0  0  0  0  0  0
    7.1797    8.9711    0.0000 C   0  0  0  0  0  0  0  0  0  0  0  0
    7.4051   11.0804    0.0000 C   0  0  0  0  0  0  0  0  0  0  0  0
    9.1509    4.7794    0.0000 C   0  0  0  0  0  0  0  0  0  0  0  0
    8.6109    3.3800    0.0000 C   0  0  0  0  0  0  0  0  0  0  0  0
    9.5528    2.2126    0.0000 C   0  0  0  0  0  0  0  0  0  0  0  0
   11.0348    2.4447    0.0000 C   0  0  0  0  0  0  0  0  0  0  0  0
   11.9767    1.2773    0.0000 C   0  0  0  0  0  0  0  0  0  0  0  0
   11.4367   -0.1221    0.0000 C   0  0  0  0  0  0  0  0  0  0  0  0
    9.9548   -0.3542    0.0000 C   0  0  0  0  0  0  0  0  0  0  0  0
    9.0128    0.8132    0.0000 C   0  0  0  0  0  0  0  0  0  0  0  0
    1.3337   -0.0827    0.0000 O   0  0  0  0  0  0  0  0  0  0  0  0
   -0.1401   -2.5258    0.0000 O   0  0  0  0  0  0  0  0  0  0  0  0
   -2.4709   -1.1715    0.0000 O   0  0  0  0  0  0  0  0  0  0  0  0
  1  2  1  0
  2  3  1  0
  2  4  1  0
  5  4  1  1
  5  6  1  0
  6  7  1  0
  7  8  1  1
  8  9  1  0
  9 10  1  0
  9 11  1  0
  7 12  1  0
 12 13  1  0
 13 14  1  6
 14 15  1  0
 15 16  1  0
 15 17  1  0
 13 18  1  0
 13 19  1  0
 19 20  1  0
 20 21  1  6
 21 22  1  0
 22 23  1  0
 22 24  1  0
 20 25  1  0
 25 26  1  0
 26 27  1  1
 27 28  1  0
 28 29  1  0
 28 30  1  0
 26 31  1  0
 31 32  1  0
 32 33  1  0
 33 34  1  0
 34 35  1  0
 34 36  1  0
 32 37  1  0
 32 38  1  0
 38 39  1  0
 39 40  1  1
 40 41  1  0
 41 42  1  0
 41 43  1  0
 39 44  1  0
 44 45  1  0
 45 46  1  6
 46 47  1  0
 47 48  1  0
 48 49  1  0
 49 50  1  0
 50 51  1  0
 51 52  2  0
 51 53  1  0
 53 54  1  0
 54 55  2  0
 55 56  1  0
 56 57  2  0
 57 58  1  0
 58 59  2  0
 59 60  1  0
 60 61  2  0
 61 62  1  0
 62 63  2  0
 63 64  1  0
 64 65  2  0
 49 66  1  0
 66 67  1  0
 67 68  2  0
 67 69  1  0
 69 70  1  0
 70 71  2  0
 71 72  1  0
 72 73  2  0
 73 74  1  0
 74 75  1  0
 74 76  1  0
 74 77  1  0
 77 78  1  0
 78 79  1  0
 78 80  1  0
 78 81  1  0
 73 82  1  0
 82 83  2  0
 83 84  1  0
 84 85  2  0
 85 86  1  0
 86 87  2  0
 87 88  1  0
 88 89  2  0
 45 90  1  0
 45 91  1  0
 39 92  1  0
 18  5  1  0
 92 20  1  0
 37  5  1  0
 65 51  1  0
 89 67  1  0
 90  7  1  0
 91 26  1  0
 59 54  1  0
 65 60  1  0
 83 70  1  0
 89 84  1  0
M  END
>  <Candidate_ID>  (279) 
CAND_R2_279

>  <Candidate_Name>  (279) 
Ti-POSS-bisDOPO-disiloxane

>  <Parent_Seed_ID>  (279) 
TRAIN_112

>  <Parent_Name>  (279) 
Ti-POSS-bisDOPO

>  <Transformation_Code>  (279) 
disiloxane

>  <Design_Family>  (279) 
P-N-Si

>  <Preparation_Type>  (279) 
Additive

>  <Synthesis_Level>  (279) 
B

>  <Parent_Tanimoto_r3>  (279) 
0.7927927927927928

>  <Max_Train_Tanimoto_r3>  (279) 
0.7927927927927928

>  <Risk_Flags>  (279) 
DOPO-core substitution route needs confirmation; high molecular weight

$$$$
CAND_R2_280 | Ti-POSS-bisDOPO-glycidyloxy
     RDKit          2D

 89100  0  0  0  0  0  0  0  0999 V2000
    1.5000   -5.1962    0.0000 C   0  0  0  0  0  0  0  0  0  0  0  0
    0.7500   -3.8971    0.0000 C   0  0  0  0  0  0  0  0  0  0  0  0
   -0.7500   -3.8971    0.0000 C   0  0  0  0  0  0  0  0  0  0  0  0
    1.5000   -2.5981    0.0000 C   0  0  0  0  0  0  0  0  0  0  0  0
    0.7500   -1.2990    0.0000 Si  0  0  0  0  0  4  0  0  0  0  0  0
    1.5000    0.0000    0.0000 O   0  0  0  0  0  0  0  0  0  0  0  0
    0.7500    1.2990    0.0000 Si  0  0  0  0  0  4  0  0  0  0  0  0
    1.5000    2.5981    0.0000 C   0  0  0  0  0  0  0  0  0  0  0  0
    0.7500    3.8971    0.0000 C   0  0  0  0  0  0  0  0  0  0  0  0
    1.5000    5.1962    0.0000 C   0  0  0  0  0  0  0  0  0  0  0  0
   -0.7500    3.8971    0.0000 C   0  0  0  0  0  0  0  0  0  0  0  0
   -0.7500    1.2990    0.0000 O   0  0  0  0  0  0  0  0  0  0  0  0
   -1.5000    0.0000    0.0000 Si  0  0  0  0  0  4  0  0  0  0  0  0
   -3.0000    0.0000    0.0000 C   0  0  0  0  0  0  0  0  0  0  0  0
   -3.7500    1.2990    0.0000 C   0  0  0  0  0  0  0  0  0  0  0  0
   -5.2500    1.2990    0.0000 C   0  0  0  0  0  0  0  0  0  0  0  0
   -3.0000    2.5981    0.0000 C   0  0  0  0  0  0  0  0  0  0  0  0
   -0.4000   -0.6928    0.0000 O   0  0  0  0  0  0  0  0  0  0  0  0
   -1.8985   -1.2299    0.0000 O   0  0  0  0  0  0  0  0  0  0  0  0
   -0.4550   -1.6378    0.0000 Si  0  0  0  0  0  4  0  0  0  0  0  0
   -0.3968   -3.1366    0.0000 C   0  0  0  0  0  0  0  0  0  0  0  0
   -1.6658   -3.9364    0.0000 C   0  0  0  0  0  0  0  0  0  0  0  0
   -1.6076   -5.4353    0.0000 C   0  0  0  0  0  0  0  0  0  0  0  0
   -2.9930   -3.2374    0.0000 C   0  0  0  0  0  0  0  0  0  0  0  0
    3.6406    0.1404    0.0000 O   0  0  0  0  0  0  0  0  0  0  0  0
    5.1406    0.1275    0.0000 Si  0  0  0  0  0  4  0  0  0  0  0  0
    6.6406    0.1275    0.0000 C   0  0  0  0  0  0  0  0  0  0  0  0
    7.3906   -1.1715    0.0000 C   0  0  0  0  0  0  0  0  0  0  0  0
    8.8906   -1.1715    0.0000 C   0  0  0  0  0  0  0  0  0  0  0  0
    6.8631   -2.4142    0.0000 C   0  0  0  0  0  0  0  0  0  0  0  0
    4.6771   -1.2990    0.0000 O   0  0  0  0  0  0  0  0  0  0  0  0
    3.4635   -2.1807    0.0000 Ti  0  0  0  0  0  4  0  0  0  0  0  0
    3.9271   -3.6073    0.0000 O   0  0  0  0  0  0  0  0  0  0  0  0
    5.3943   -3.9192    0.0000 C   0  0  0  0  0  0  0  0  0  0  0  0
    5.8578   -5.3458    0.0000 C   0  0  0  0  0  0  0  0  0  0  0  0
    6.4132   -3.0335    0.0000 C   0  0  0  0  0  0  0  0  0  0  0  0
    1.9635   -2.1807    0.0000 O   0  0  0  0  0  0  0  0  0  0  0  0
    2.2500   -1.2990    0.0000 O   0  0  0  0  0  0  0  0  0  0  0  0
    1.7865    0.1275    0.0000 Si  0  0  0  0  0  4  0  0  0  0  0  0
    0.2865    0.1275    0.0000 C   0  0  0  0  0  0  0  0  0  0  0  0
   -0.4635    1.4266    0.0000 C   0  0  0  0  0  0  0  0  0  0  0  0
   -1.9635    1.4266    0.0000 C   0  0  0  0  0  0  0  0  0  0  0  0
    0.2865    2.7256    0.0000 C   0  0  0  0  0  0  0  0  0  0  0  0
    2.2500    1.5541    0.0000 O   0  0  0  0  0  0  0  0  0  0  0  0
    3.4635    2.4358    0.0000 Si  0  0  0  0  0  4  0  0  0  0  0  0
    3.9271    3.8624    0.0000 C   0  0  0  0  0  0  0  0  0  0  0  0
    5.3943    4.1743    0.0000 C   0  0  0  0  0  0  0  0  0  0  0  0
    5.8578    5.6008    0.0000 C   0  0  0  0  0  0  0  0  0  0  0  0
    7.3250    5.9127    0.0000 N   0  0  0  0  0  0  0  0  0  0  0  0
    7.7885    7.3393    0.0000 C   0  0  0  0  0  0  0  0  0  0  0  0
    9.2558    7.6512    0.0000 P   0  0  0  0  0  0  0  0  0  0  0  0
    9.1250    6.1569    0.0000 O   0  0  0  0  0  0  0  0  0  0  0  0
    8.6939    9.0419    0.0000 O   0  0  0  0  0  0  0  0  0  0  0  0
    9.6173   10.2240    0.0000 C   0  0  0  0  0  0  0  0  0  0  0  0
    9.0554   11.6147    0.0000 C   0  0  0  0  0  0  0  0  0  0  0  0
    9.9789   12.7968    0.0000 C   0  0  0  0  0  0  0  0  0  0  0  0
   11.4643   12.5880    0.0000 C   0  0  0  0  0  0  0  0  0  0  0  0
   12.0262   11.1972    0.0000 C   0  0  0  0  0  0  0  0  0  0  0  0
   11.1028   10.0152    0.0000 C   0  0  0  0  0  0  0  0  0  0  0  0
   11.6647    8.6244    0.0000 C   0  0  0  0  0  0  0  0  0  0  0  0
   13.1501    8.4157    0.0000 C   0  0  0  0  0  0  0  0  0  0  0  0
   13.7120    7.0249    0.0000 C   0  0  0  0  0  0  0  0  0  0  0  0
   12.7885    5.8429    0.0000 C   0  0  0  0  0  0  0  0  0  0  0  0
   11.3031    6.0516    0.0000 C   0  0  0  0  0  0  0  0  0  0  0  0
   10.7412    7.4424    0.0000 C   0  0  0  0  0  0  0  0  0  0  0  0
    8.3287    4.7980    0.0000 C   0  0  0  0  0  0  0  0  0  0  0  0
    9.7959    5.1099    0.0000 P   0  0  0  0  0  0  0  0  0  0  0  0
    9.0687    6.4218    0.0000 O   0  0  0  0  0  0  0  0  0  0  0  0
    9.8483    3.6108    0.0000 O   0  0  0  0  0  0  0  0  0  0  0  0
   11.1727    2.9066    0.0000 C   0  0  0  0  0  0  0  0  0  0  0  0
   11.2251    1.4075    0.0000 C   0  0  0  0  0  0  0  0  0  0  0  0
   12.5495    0.7033    0.0000 C   0  0  0  0  0  0  0  0  0  0  0  0
   13.8216    1.4982    0.0000 C   0  0  0  0  0  0  0  0  0  0  0  0
   15.1460    0.7939    0.0000 O   0  0  0  0  0  0  0  0  0  0  0  0
   15.1983   -0.7051    0.0000 C   0  0  0  0  0  0  0  0  0  0  0  0
   16.5227   -1.4093    0.0000 C   0  0  0  0  0  0  0  0  0  0  0  0
   18.0218   -1.3570    0.0000 C   0  0  0  0  0  0  0  0  0  0  0  0
   17.3176   -2.6814    0.0000 O   0  0  0  0  0  0  0  0  0  0  0  0
   13.7692    2.9972    0.0000 C   0  0  0  0  0  0  0  0  0  0  0  0
   12.4448    3.7014    0.0000 C   0  0  0  0  0  0  0  0  0  0  0  0
   12.3924    5.2005    0.0000 C   0  0  0  0  0  0  0  0  0  0  0  0
   13.6645    5.9954    0.0000 C   0  0  0  0  0  0  0  0  0  0  0  0
   13.6122    7.4945    0.0000 C   0  0  0  0  0  0  0  0  0  0  0  0
   12.2877    8.1987    0.0000 C   0  0  0  0  0  0  0  0  0  0  0  0
   11.0157    7.4038    0.0000 C   0  0  0  0  0  0  0  0  0  0  0  0
   11.0680    5.9047    0.0000 C   0  0  0  0  0  0  0  0  0  0  0  0
    1.9635    2.4358    0.0000 O   0  0  0  0  0  0  0  0  0  0  0  0
    4.6771    1.5541    0.0000 O   0  0  0  0  0  0  0  0  0  0  0  0
    0.9525   -1.1193    0.0000 O   0  0  0  0  0  0  0  0  0  0  0  0
  1  2  1  0
  2  3  1  0
  2  4  1  0
  5  4  1  1
  5  6  1  0
  6  7  1  0
  7  8  1  6
  8  9  1  0
  9 10  1  0
  9 11  1  0
  7 12  1  0
 12 13  1  0
 13 14  1  6
 14 15  1  0
 15 16  1  0
 15 17  1  0
 13 18  1  0
 13 19  1  0
 19 20  1  0
 20 21  1  1
 21 22  1  0
 22 23  1  0
 22 24  1  0
 20 25  1  0
 25 26  1  0
 26 27  1  1
 27 28  1  0
 28 29  1  0
 28 30  1  0
 26 31  1  0
 31 32  1  0
 32 33  1  0
 33 34  1  0
 34 35  1  0
 34 36  1  0
 32 37  1  0
 32 38  1  0
 38 39  1  0
 39 40  1  1
 40 41  1  0
 41 42  1  0
 41 43  1  0
 39 44  1  0
 44 45  1  0
 45 46  1  6
 46 47  1  0
 47 48  1  0
 48 49  1  0
 49 50  1  0
 50 51  1  0
 51 52  2  0
 51 53  1  0
 53 54  1  0
 54 55  2  0
 55 56  1  0
 56 57  2  0
 57 58  1  0
 58 59  2  0
 59 60  1  0
 60 61  2  0
 61 62  1  0
 62 63  2  0
 63 64  1  0
 64 65  2  0
 49 66  1  0
 66 67  1  0
 67 68  2  0
 67 69  1  0
 69 70  1  0
 70 71  2  0
 71 72  1  0
 72 73  2  0
 73 74  1  0
 74 75  1  0
 75 76  1  0
 76 77  1  0
 77 78  1  0
 73 79  1  0
 79 80  2  0
 80 81  1  0
 81 82  2  0
 82 83  1  0
 83 84  2  0
 84 85  1  0
 85 86  2  0
 45 87  1  0
 45 88  1  0
 39 89  1  0
 18  5  1  0
 89 20  1  0
 37  5  1  0
 65 51  1  0
 86 67  1  0
 87  7  1  0
 88 26  1  0
 59 54  1  0
 65 60  1  0
 80 70  1  0
 86 81  1  0
 78 76  1  0
M  END
>  <Candidate_ID>  (280) 
CAND_R2_280

>  <Candidate_Name>  (280) 
Ti-POSS-bisDOPO-glycidyloxy

>  <Parent_Seed_ID>  (280) 
TRAIN_112

>  <Parent_Name>  (280) 
Ti-POSS-bisDOPO

>  <Transformation_Code>  (280) 
glycidyloxy

>  <Design_Family>  (280) 
P-N-Si

>  <Preparation_Type>  (280) 
Co-curing

>  <Synthesis_Level>  (280) 
B

>  <Parent_Tanimoto_r3>  (280) 
0.7586206896551724

>  <Max_Train_Tanimoto_r3>  (280) 
0.7586206896551724

>  <Risk_Flags>  (280) 
DOPO-core substitution route needs confirmation; high molecular weight

$$$$
CAND_R2_281 | Ti-POSS-bisDOPO-diaminotriazine
     RDKit          2D

 92103  0  0  0  0  0  0  0  0999 V2000
    1.5000   -5.1962    0.0000 C   0  0  0  0  0  0  0  0  0  0  0  0
    0.7500   -3.8971    0.0000 C   0  0  0  0  0  0  0  0  0  0  0  0
   -0.7500   -3.8971    0.0000 C   0  0  0  0  0  0  0  0  0  0  0  0
    1.5000   -2.5981    0.0000 C   0  0  0  0  0  0  0  0  0  0  0  0
    0.7500   -1.2990    0.0000 Si  0  0  0  0  0  4  0  0  0  0  0  0
    1.5000    0.0000    0.0000 O   0  0  0  0  0  0  0  0  0  0  0  0
    0.7500    1.2990    0.0000 Si  0  0  0  0  0  4  0  0  0  0  0  0
    1.5000    2.5981    0.0000 C   0  0  0  0  0  0  0  0  0  0  0  0
    0.7500    3.8971    0.0000 C   0  0  0  0  0  0  0  0  0  0  0  0
    1.5000    5.1962    0.0000 C   0  0  0  0  0  0  0  0  0  0  0  0
   -0.7500    3.8971    0.0000 C   0  0  0  0  0  0  0  0  0  0  0  0
   -0.7500    1.2990    0.0000 O   0  0  0  0  0  0  0  0  0  0  0  0
   -1.5000    0.0000    0.0000 Si  0  0  0  0  0  4  0  0  0  0  0  0
   -3.0000    0.0000    0.0000 C   0  0  0  0  0  0  0  0  0  0  0  0
   -3.7500    1.2990    0.0000 C   0  0  0  0  0  0  0  0  0  0  0  0
   -5.2500    1.2990    0.0000 C   0  0  0  0  0  0  0  0  0  0  0  0
   -3.0000    2.5981    0.0000 C   0  0  0  0  0  0  0  0  0  0  0  0
   -0.4000   -0.6928    0.0000 O   0  0  0  0  0  0  0  0  0  0  0  0
   -1.8985   -1.2299    0.0000 O   0  0  0  0  0  0  0  0  0  0  0  0
   -0.4550   -1.6378    0.0000 Si  0  0  0  0  0  4  0  0  0  0  0  0
   -0.3968   -3.1366    0.0000 C   0  0  0  0  0  0  0  0  0  0  0  0
   -1.6658   -3.9364    0.0000 C   0  0  0  0  0  0  0  0  0  0  0  0
   -1.6076   -5.4353    0.0000 C   0  0  0  0  0  0  0  0  0  0  0  0
   -2.9930   -3.2374    0.0000 C   0  0  0  0  0  0  0  0  0  0  0  0
    3.6406    0.1404    0.0000 O   0  0  0  0  0  0  0  0  0  0  0  0
    5.1406    0.1275    0.0000 Si  0  0  0  0  0  4  0  0  0  0  0  0
    6.6406    0.1275    0.0000 C   0  0  0  0  0  0  0  0  0  0  0  0
    7.3906   -1.1715    0.0000 C   0  0  0  0  0  0  0  0  0  0  0  0
    8.8906   -1.1715    0.0000 C   0  0  0  0  0  0  0  0  0  0  0  0
    6.8631   -2.4142    0.0000 C   0  0  0  0  0  0  0  0  0  0  0  0
    4.6771   -1.2990    0.0000 O   0  0  0  0  0  0  0  0  0  0  0  0
    3.4635   -2.1807    0.0000 Ti  0  0  0  0  0  4  0  0  0  0  0  0
    3.9271   -3.6073    0.0000 O   0  0  0  0  0  0  0  0  0  0  0  0
    5.3943   -3.9192    0.0000 C   0  0  0  0  0  0  0  0  0  0  0  0
    5.8578   -5.3458    0.0000 C   0  0  0  0  0  0  0  0  0  0  0  0
    6.4132   -3.0335    0.0000 C   0  0  0  0  0  0  0  0  0  0  0  0
    1.9635   -2.1807    0.0000 O   0  0  0  0  0  0  0  0  0  0  0  0
    2.2500   -1.2990    0.0000 O   0  0  0  0  0  0  0  0  0  0  0  0
    1.7865    0.1275    0.0000 Si  0  0  0  0  0  4  0  0  0  0  0  0
    0.2865    0.1275    0.0000 C   0  0  0  0  0  0  0  0  0  0  0  0
   -0.4635    1.4266    0.0000 C   0  0  0  0  0  0  0  0  0  0  0  0
   -1.9635    1.4266    0.0000 C   0  0  0  0  0  0  0  0  0  0  0  0
    0.2865    2.7256    0.0000 C   0  0  0  0  0  0  0  0  0  0  0  0
    2.2500    1.5541    0.0000 O   0  0  0  0  0  0  0  0  0  0  0  0
    3.4635    2.4358    0.0000 Si  0  0  0  0  0  4  0  0  0  0  0  0
    3.9271    3.8624    0.0000 C   0  0  0  0  0  0  0  0  0  0  0  0
    5.3943    4.1743    0.0000 C   0  0  0  0  0  0  0  0  0  0  0  0
    5.8578    5.6008    0.0000 C   0  0  0  0  0  0  0  0  0  0  0  0
    7.3250    5.9127    0.0000 N   0  0  0  0  0  0  0  0  0  0  0  0
    7.7885    7.3393    0.0000 C   0  0  0  0  0  0  0  0  0  0  0  0
    9.2558    7.6512    0.0000 P   0  0  0  0  0  0  0  0  0  0  0  0
    9.1250    6.1569    0.0000 O   0  0  0  0  0  0  0  0  0  0  0  0
    8.6939    9.0419    0.0000 O   0  0  0  0  0  0  0  0  0  0  0  0
    9.6173   10.2240    0.0000 C   0  0  0  0  0  0  0  0  0  0  0  0
    9.0554   11.6147    0.0000 C   0  0  0  0  0  0  0  0  0  0  0  0
    9.9789   12.7968    0.0000 C   0  0  0  0  0  0  0  0  0  0  0  0
   11.4643   12.5880    0.0000 C   0  0  0  0  0  0  0  0  0  0  0  0
   12.0262   11.1972    0.0000 C   0  0  0  0  0  0  0  0  0  0  0  0
   11.1028   10.0152    0.0000 C   0  0  0  0  0  0  0  0  0  0  0  0
   11.6647    8.6244    0.0000 C   0  0  0  0  0  0  0  0  0  0  0  0
   13.1501    8.4157    0.0000 C   0  0  0  0  0  0  0  0  0  0  0  0
   13.7120    7.0249    0.0000 C   0  0  0  0  0  0  0  0  0  0  0  0
   12.7885    5.8429    0.0000 C   0  0  0  0  0  0  0  0  0  0  0  0
   11.3031    6.0516    0.0000 C   0  0  0  0  0  0  0  0  0  0  0  0
   10.7412    7.4424    0.0000 C   0  0  0  0  0  0  0  0  0  0  0  0
    8.3287    4.7980    0.0000 C   0  0  0  0  0  0  0  0  0  0  0  0
    9.7959    5.1099    0.0000 P   0  0  0  0  0  0  0  0  0  0  0  0
    9.0687    6.4218    0.0000 O   0  0  0  0  0  0  0  0  0  0  0  0
    9.8483    3.6108    0.0000 O   0  0  0  0  0  0  0  0  0  0  0  0
   11.1727    2.9066    0.0000 C   0  0  0  0  0  0  0  0  0  0  0  0
   11.2251    1.4075    0.0000 C   0  0  0  0  0  0  0  0  0  0  0  0
   12.5495    0.7033    0.0000 C   0  0  0  0  0  0  0  0  0  0  0  0
   13.8216    1.4982    0.0000 C   0  0  0  0  0  0  0  0  0  0  0  0
   15.1460    0.7939    0.0000 C   0  0  0  0  0  0  0  0  0  0  0  0
   15.1983   -0.7051    0.0000 N   0  0  0  0  0  0  0  0  0  0  0  0
   16.5227   -1.4093    0.0000 C   0  0  0  0  0  0  0  0  0  0  0  0
   16.5751   -2.9084    0.0000 N   0  0  0  0  0  0  0  0  0  0  0  0
   17.7948   -0.6145    0.0000 N   0  0  0  0  0  0  0  0  0  0  0  0
   17.7425    0.8846    0.0000 C   0  0  0  0  0  0  0  0  0  0  0  0
   19.0145    1.6795    0.0000 N   0  0  0  0  0  0  0  0  0  0  0  0
   16.4180    1.5888    0.0000 N   0  0  0  0  0  0  0  0  0  0  0  0
   13.7692    2.9972    0.0000 C   0  0  0  0  0  0  0  0  0  0  0  0
   12.4448    3.7014    0.0000 C   0  0  0  0  0  0  0  0  0  0  0  0
   12.3924    5.2005    0.0000 C   0  0  0  0  0  0  0  0  0  0  0  0
   13.6645    5.9954    0.0000 C   0  0  0  0  0  0  0  0  0  0  0  0
   13.6122    7.4945    0.0000 C   0  0  0  0  0  0  0  0  0  0  0  0
   12.2877    8.1987    0.0000 C   0  0  0  0  0  0  0  0  0  0  0  0
   11.0157    7.4038    0.0000 C   0  0  0  0  0  0  0  0  0  0  0  0
   11.0680    5.9047    0.0000 C   0  0  0  0  0  0  0  0  0  0  0  0
    1.9635    2.4358    0.0000 O   0  0  0  0  0  0  0  0  0  0  0  0
    4.6771    1.5541    0.0000 O   0  0  0  0  0  0  0  0  0  0  0  0
    0.9525   -1.1193    0.0000 O   0  0  0  0  0  0  0  0  0  0  0  0
  1  2  1  0
  2  3  1  0
  2  4  1  0
  5  4  1  1
  5  6  1  0
  6  7  1  0
  7  8  1  6
  8  9  1  0
  9 10  1  0
  9 11  1  0
  7 12  1  0
 12 13  1  0
 13 14  1  6
 14 15  1  0
 15 16  1  0
 15 17  1  0
 13 18  1  0
 13 19  1  0
 19 20  1  0
 20 21  1  1
 21 22  1  0
 22 23  1  0
 22 24  1  0
 20 25  1  0
 25 26  1  0
 26 27  1  1
 27 28  1  0
 28 29  1  0
 28 30  1  0
 26 31  1  0
 31 32  1  0
 32 33  1  0
 33 34  1  0
 34 35  1  0
 34 36  1  0
 32 37  1  0
 32 38  1  0
 38 39  1  0
 39 40  1  1
 40 41  1  0
 41 42  1  0
 41 43  1  0
 39 44  1  0
 44 45  1  0
 45 46  1  6
 46 47  1  0
 47 48  1  0
 48 49  1  0
 49 50  1  0
 50 51  1  0
 51 52  2  0
 51 53  1  0
 53 54  1  0
 54 55  2  0
 55 56  1  0
 56 57  2  0
 57 58  1  0
 58 59  2  0
 59 60  1  0
 60 61  2  0
 61 62  1  0
 62 63  2  0
 63 64  1  0
 64 65  2  0
 49 66  1  0
 66 67  1  0
 67 68  2  0
 67 69  1  0
 69 70  1  0
 70 71  2  0
 71 72  1  0
 72 73  2  0
 73 74  1  0
 74 75  2  0
 75 76  1  0
 76 77  1  0
 76 78  2  0
 78 79  1  0
 79 80  1  0
 79 81  2  0
 73 82  1  0
 82 83  2  0
 83 84  1  0
 84 85  2  0
 85 86  1  0
 86 87  2  0
 87 88  1  0
 88 89  2  0
 45 90  1  0
 45 91  1  0
 39 92  1  0
 18  5  1  0
 92 20  1  0
 37  5  1  0
 65 51  1  0
 89 67  1  0
 90  7  1  0
 91 26  1  0
 59 54  1  0
 65 60  1  0
 83 70  1  0
 89 84  1  0
 81 74  1  0
M  END
>  <Candidate_ID>  (281) 
CAND_R2_281

>  <Candidate_Name>  (281) 
Ti-POSS-bisDOPO-diaminotriazine

>  <Parent_Seed_ID>  (281) 
TRAIN_112

>  <Parent_Name>  (281) 
Ti-POSS-bisDOPO

>  <Transformation_Code>  (281) 
diaminotriazine

>  <Design_Family>  (281) 
P-N-Si

>  <Preparation_Type>  (281) 
Co-curing

>  <Synthesis_Level>  (281) 
B

>  <Parent_Tanimoto_r3>  (281) 
0.7586206896551724

>  <Max_Train_Tanimoto_r3>  (281) 
0.7586206896551724

>  <Risk_Flags>  (281) 
DOPO-core substitution route needs confirmation; high molecular weight

$$$$
CAND_R2_282 | Ti-POSS-bisDOPO-piperazine
     RDKit          2D

 90101  0  0  0  0  0  0  0  0999 V2000
    1.5000   -5.1962    0.0000 C   0  0  0  0  0  0  0  0  0  0  0  0
    0.7500   -3.8971    0.0000 C   0  0  0  0  0  0  0  0  0  0  0  0
   -0.7500   -3.8971    0.0000 C   0  0  0  0  0  0  0  0  0  0  0  0
    1.5000   -2.5981    0.0000 C   0  0  0  0  0  0  0  0  0  0  0  0
    0.7500   -1.2990    0.0000 Si  0  0  0  0  0  4  0  0  0  0  0  0
    1.5000    0.0000    0.0000 O   0  0  0  0  0  0  0  0  0  0  0  0
    0.7500    1.2990    0.0000 Si  0  0  0  0  0  4  0  0  0  0  0  0
    1.5000    2.5981    0.0000 C   0  0  0  0  0  0  0  0  0  0  0  0
    0.7500    3.8971    0.0000 C   0  0  0  0  0  0  0  0  0  0  0  0
    1.5000    5.1962    0.0000 C   0  0  0  0  0  0  0  0  0  0  0  0
   -0.7500    3.8971    0.0000 C   0  0  0  0  0  0  0  0  0  0  0  0
   -0.7500    1.2990    0.0000 O   0  0  0  0  0  0  0  0  0  0  0  0
   -1.5000    0.0000    0.0000 Si  0  0  0  0  0  4  0  0  0  0  0  0
   -3.0000    0.0000    0.0000 C   0  0  0  0  0  0  0  0  0  0  0  0
   -3.7500    1.2990    0.0000 C   0  0  0  0  0  0  0  0  0  0  0  0
   -5.2500    1.2990    0.0000 C   0  0  0  0  0  0  0  0  0  0  0  0
   -3.0000    2.5981    0.0000 C   0  0  0  0  0  0  0  0  0  0  0  0
   -0.4000   -0.6928    0.0000 O   0  0  0  0  0  0  0  0  0  0  0  0
   -1.8985   -1.2299    0.0000 O   0  0  0  0  0  0  0  0  0  0  0  0
   -0.4550   -1.6378    0.0000 Si  0  0  0  0  0  4  0  0  0  0  0  0
   -0.3968   -3.1366    0.0000 C   0  0  0  0  0  0  0  0  0  0  0  0
   -1.6658   -3.9364    0.0000 C   0  0  0  0  0  0  0  0  0  0  0  0
   -1.6076   -5.4353    0.0000 C   0  0  0  0  0  0  0  0  0  0  0  0
   -2.9930   -3.2374    0.0000 C   0  0  0  0  0  0  0  0  0  0  0  0
    3.6406    0.1404    0.0000 O   0  0  0  0  0  0  0  0  0  0  0  0
    5.1406    0.1275    0.0000 Si  0  0  0  0  0  4  0  0  0  0  0  0
    6.6406    0.1275    0.0000 C   0  0  0  0  0  0  0  0  0  0  0  0
    7.3906   -1.1715    0.0000 C   0  0  0  0  0  0  0  0  0  0  0  0
    8.8906   -1.1715    0.0000 C   0  0  0  0  0  0  0  0  0  0  0  0
    6.8631   -2.4142    0.0000 C   0  0  0  0  0  0  0  0  0  0  0  0
    4.6771   -1.2990    0.0000 O   0  0  0  0  0  0  0  0  0  0  0  0
    3.4635   -2.1807    0.0000 Ti  0  0  0  0  0  4  0  0  0  0  0  0
    3.9271   -3.6073    0.0000 O   0  0  0  0  0  0  0  0  0  0  0  0
    5.3943   -3.9192    0.0000 C   0  0  0  0  0  0  0  0  0  0  0  0
    5.8578   -5.3458    0.0000 C   0  0  0  0  0  0  0  0  0  0  0  0
    6.4132   -3.0335    0.0000 C   0  0  0  0  0  0  0  0  0  0  0  0
    1.9635   -2.1807    0.0000 O   0  0  0  0  0  0  0  0  0  0  0  0
    2.2500   -1.2990    0.0000 O   0  0  0  0  0  0  0  0  0  0  0  0
    1.7865    0.1275    0.0000 Si  0  0  0  0  0  4  0  0  0  0  0  0
    0.2865    0.1275    0.0000 C   0  0  0  0  0  0  0  0  0  0  0  0
   -0.4635    1.4266    0.0000 C   0  0  0  0  0  0  0  0  0  0  0  0
   -1.9635    1.4266    0.0000 C   0  0  0  0  0  0  0  0  0  0  0  0
    0.2865    2.7256    0.0000 C   0  0  0  0  0  0  0  0  0  0  0  0
    2.2500    1.5541    0.0000 O   0  0  0  0  0  0  0  0  0  0  0  0
    3.4635    2.4358    0.0000 Si  0  0  0  0  0  4  0  0  0  0  0  0
    3.9271    3.8624    0.0000 C   0  0  0  0  0  0  0  0  0  0  0  0
    5.3943    4.1743    0.0000 C   0  0  0  0  0  0  0  0  0  0  0  0
    5.8578    5.6008    0.0000 C   0  0  0  0  0  0  0  0  0  0  0  0
    7.3250    5.9127    0.0000 N   0  0  0  0  0  0  0  0  0  0  0  0
    7.7885    7.3393    0.0000 C   0  0  0  0  0  0  0  0  0  0  0  0
    9.2558    7.6512    0.0000 P   0  0  0  0  0  0  0  0  0  0  0  0
    9.1250    6.1569    0.0000 O   0  0  0  0  0  0  0  0  0  0  0  0
    8.6939    9.0419    0.0000 O   0  0  0  0  0  0  0  0  0  0  0  0
    9.6173   10.2240    0.0000 C   0  0  0  0  0  0  0  0  0  0  0  0
    9.0554   11.6147    0.0000 C   0  0  0  0  0  0  0  0  0  0  0  0
    9.9789   12.7968    0.0000 C   0  0  0  0  0  0  0  0  0  0  0  0
   11.4643   12.5880    0.0000 C   0  0  0  0  0  0  0  0  0  0  0  0
   12.0262   11.1972    0.0000 C   0  0  0  0  0  0  0  0  0  0  0  0
   11.1028   10.0152    0.0000 C   0  0  0  0  0  0  0  0  0  0  0  0
   11.6647    8.6244    0.0000 C   0  0  0  0  0  0  0  0  0  0  0  0
   13.1501    8.4157    0.0000 C   0  0  0  0  0  0  0  0  0  0  0  0
   13.7120    7.0249    0.0000 C   0  0  0  0  0  0  0  0  0  0  0  0
   12.7885    5.8429    0.0000 C   0  0  0  0  0  0  0  0  0  0  0  0
   11.3031    6.0516    0.0000 C   0  0  0  0  0  0  0  0  0  0  0  0
   10.7412    7.4424    0.0000 C   0  0  0  0  0  0  0  0  0  0  0  0
    8.3287    4.7980    0.0000 C   0  0  0  0  0  0  0  0  0  0  0  0
    9.7959    5.1099    0.0000 P   0  0  0  0  0  0  0  0  0  0  0  0
    9.0687    6.4218    0.0000 O   0  0  0  0  0  0  0  0  0  0  0  0
    9.8483    3.6108    0.0000 O   0  0  0  0  0  0  0  0  0  0  0  0
   11.1727    2.9066    0.0000 C   0  0  0  0  0  0  0  0  0  0  0  0
   11.2251    1.4075    0.0000 C   0  0  0  0  0  0  0  0  0  0  0  0
   12.5495    0.7033    0.0000 C   0  0  0  0  0  0  0  0  0  0  0  0
   13.8216    1.4982    0.0000 C   0  0  0  0  0  0  0  0  0  0  0  0
   15.1460    0.7939    0.0000 N   0  0  0  0  0  0  0  0  0  0  0  0
   15.1983   -0.7051    0.0000 C   0  0  0  0  0  0  0  0  0  0  0  0
   16.5227   -1.4093    0.0000 C   0  0  0  0  0  0  0  0  0  0  0  0
   17.7948   -0.6145    0.0000 N   0  0  0  0  0  0  0  0  0  0  0  0
   17.7425    0.8846    0.0000 C   0  0  0  0  0  0  0  0  0  0  0  0
   16.4180    1.5888    0.0000 C   0  0  0  0  0  0  0  0  0  0  0  0
   13.7692    2.9972    0.0000 C   0  0  0  0  0  0  0  0  0  0  0  0
   12.4448    3.7014    0.0000 C   0  0  0  0  0  0  0  0  0  0  0  0
   12.3924    5.2005    0.0000 C   0  0  0  0  0  0  0  0  0  0  0  0
   13.6645    5.9954    0.0000 C   0  0  0  0  0  0  0  0  0  0  0  0
   13.6122    7.4945    0.0000 C   0  0  0  0  0  0  0  0  0  0  0  0
   12.2877    8.1987    0.0000 C   0  0  0  0  0  0  0  0  0  0  0  0
   11.0157    7.4038    0.0000 C   0  0  0  0  0  0  0  0  0  0  0  0
   11.0680    5.9047    0.0000 C   0  0  0  0  0  0  0  0  0  0  0  0
    1.9635    2.4358    0.0000 O   0  0  0  0  0  0  0  0  0  0  0  0
    4.6771    1.5541    0.0000 O   0  0  0  0  0  0  0  0  0  0  0  0
    0.9525   -1.1193    0.0000 O   0  0  0  0  0  0  0  0  0  0  0  0
  1  2  1  0
  2  3  1  0
  2  4  1  0
  5  4  1  1
  5  6  1  0
  6  7  1  0
  7  8  1  6
  8  9  1  0
  9 10  1  0
  9 11  1  0
  7 12  1  0
 12 13  1  0
 13 14  1  6
 14 15  1  0
 15 16  1  0
 15 17  1  0
 13 18  1  0
 13 19  1  0
 19 20  1  0
 20 21  1  1
 21 22  1  0
 22 23  1  0
 22 24  1  0
 20 25  1  0
 25 26  1  0
 26 27  1  1
 27 28  1  0
 28 29  1  0
 28 30  1  0
 26 31  1  0
 31 32  1  0
 32 33  1  0
 33 34  1  0
 34 35  1  0
 34 36  1  0
 32 37  1  0
 32 38  1  0
 38 39  1  0
 39 40  1  1
 40 41  1  0
 41 42  1  0
 41 43  1  0
 39 44  1  0
 44 45  1  0
 45 46  1  6
 46 47  1  0
 47 48  1  0
 48 49  1  0
 49 50  1  0
 50 51  1  0
 51 52  2  0
 51 53  1  0
 53 54  1  0
 54 55  2  0
 55 56  1  0
 56 57  2  0
 57 58  1  0
 58 59  2  0
 59 60  1  0
 60 61  2  0
 61 62  1  0
 62 63  2  0
 63 64  1  0
 64 65  2  0
 49 66  1  0
 66 67  1  0
 67 68  2  0
 67 69  1  0
 69 70  1  0
 70 71  2  0
 71 72  1  0
 72 73  2  0
 73 74  1  0
 74 75  1  0
 75 76  1  0
 76 77  1  0
 77 78  1  0
 78 79  1  0
 73 80  1  0
 80 81  2  0
 81 82  1  0
 82 83  2  0
 83 84  1  0
 84 85  2  0
 85 86  1  0
 86 87  2  0
 45 88  1  0
 45 89  1  0
 39 90  1  0
 18  5  1  0
 90 20  1  0
 37  5  1  0
 65 51  1  0
 87 67  1  0
 88  7  1  0
 89 26  1  0
 59 54  1  0
 65 60  1  0
 81 70  1  0
 87 82  1  0
 79 74  1  0
M  END
>  <Candidate_ID>  (282) 
CAND_R2_282

>  <Candidate_Name>  (282) 
Ti-POSS-bisDOPO-piperazine

>  <Parent_Seed_ID>  (282) 
TRAIN_112

>  <Parent_Name>  (282) 
Ti-POSS-bisDOPO

>  <Transformation_Code>  (282) 
piperazine

>  <Design_Family>  (282) 
P-N-Si

>  <Preparation_Type>  (282) 
Co-curing

>  <Synthesis_Level>  (282) 
B

>  <Parent_Tanimoto_r3>  (282) 
0.7521367521367521

>  <Max_Train_Tanimoto_r3>  (282) 
0.7521367521367521

>  <Risk_Flags>  (282) 
DOPO-core substitution route needs confirmation; high molecular weight

$$$$
CAND_R2_283 | DGEBDB-amino
     RDKit          2D

 43 49  0  0  0  0  0  0  0  0999 V2000
   -1.0272   -8.7799    0.0000 C   0  0  0  0  0  0  0  0  0  0  0  0
    0.3824   -9.2929    0.0000 O   0  0  0  0  0  0  0  0  0  0  0  0
    1.5314   -8.3287    0.0000 C   0  0  0  0  0  0  0  0  0  0  0  0
    1.2709   -6.8515    0.0000 C   0  0  0  0  0  0  0  0  0  0  0  0
    2.4200   -5.8874    0.0000 C   0  0  0  0  0  0  0  0  0  0  0  0
    2.1595   -4.4101    0.0000 C   0  0  0  0  0  0  0  0  0  0  0  0
    3.3086   -3.4460    0.0000 C   0  0  0  0  0  0  0  0  0  0  0  0
    4.7181   -3.9590    0.0000 C   0  0  0  0  0  0  0  0  0  0  0  0
    5.8672   -2.9948    0.0000 C   0  0  0  0  0  0  0  0  0  0  0  0
    7.2768   -3.5078    0.0000 N   0  0  0  0  0  0  0  0  0  0  0  0
    5.6067   -1.5176    0.0000 C   0  0  0  0  0  0  0  0  0  0  0  0
    6.7558   -0.5534    0.0000 O   0  0  0  0  0  0  0  0  0  0  0  0
    6.4953    0.9238    0.0000 C   0  0  0  0  0  0  0  0  0  0  0  0
    7.6444    1.8880    0.0000 C   0  0  0  0  0  0  0  0  0  0  0  0
    8.1574    3.2975    0.0000 C   0  0  0  0  0  0  0  0  0  0  0  0
    9.1216    2.1484    0.0000 O   0  0  0  0  0  0  0  0  0  0  0  0
    4.1972   -1.0046    0.0000 C   0  0  0  0  0  0  0  0  0  0  0  0
    3.9367    0.4726    0.0000 O   0  0  0  0  0  0  0  0  0  0  0  0
    5.0858    1.4368    0.0000 C   0  0  0  0  0  0  0  0  0  0  0  0
    3.0481   -1.9688    0.0000 C   0  0  0  0  0  0  0  0  0  0  0  0
    0.7500   -3.8971    0.0000 P   0  0  0  0  0  0  0  0  0  0  0  0
    0.4895   -5.3743    0.0000 O   0  0  0  0  0  0  0  0  0  0  0  0
    1.5000   -2.5981    0.0000 O   0  0  0  0  0  0  0  0  0  0  0  0
    0.7500   -1.2990    0.0000 C   0  0  0  0  0  0  0  0  0  0  0  0
    1.5000    0.0000    0.0000 C   0  0  0  0  0  0  0  0  0  0  0  0
    0.7500    1.2990    0.0000 C   0  0  0  0  0  0  0  0  0  0  0  0
   -0.7500    1.2990    0.0000 C   0  0  0  0  0  0  0  0  0  0  0  0
   -1.5000    0.0000    0.0000 C   0  0  0  0  0  0  0  0  0  0  0  0
   -0.7500   -1.2990    0.0000 C   0  0  0  0  0  0  0  0  0  0  0  0
   -1.5000   -2.5981    0.0000 C   0  0  0  0  0  0  0  0  0  0  0  0
   -3.0000   -2.5981    0.0000 C   0  0  0  0  0  0  0  0  0  0  0  0
   -3.7500   -3.8971    0.0000 C   0  0  0  0  0  0  0  0  0  0  0  0
   -3.0000   -5.1962    0.0000 C   0  0  0  0  0  0  0  0  0  0  0  0
   -1.5000   -5.1962    0.0000 C   0  0  0  0  0  0  0  0  0  0  0  0
   -0.7500   -3.8971    0.0000 C   0  0  0  0  0  0  0  0  0  0  0  0
    3.8296   -6.4004    0.0000 C   0  0  0  0  0  0  0  0  0  0  0  0
    4.0900   -7.8776    0.0000 C   0  0  0  0  0  0  0  0  0  0  0  0
    2.9410   -8.8418    0.0000 C   0  0  0  0  0  0  0  0  0  0  0  0
    3.2014  -10.3190    0.0000 O   0  0  0  0  0  0  0  0  0  0  0  0
    4.6110  -10.8320    0.0000 C   0  0  0  0  0  0  0  0  0  0  0  0
    4.8714  -12.3092    0.0000 C   0  0  0  0  0  0  0  0  0  0  0  0
    5.8356  -13.4583    0.0000 C   0  0  0  0  0  0  0  0  0  0  0  0
    4.3584  -13.7188    0.0000 O   0  0  0  0  0  0  0  0  0  0  0  0
  1  2  1  0
  2  3  1  0
  3  4  2  0
  4  5  1  0
  5  6  1  0
  6  7  1  0
  7  8  2  0
  8  9  1  0
  9 10  1  0
  9 11  2  0
 11 12  1  0
 12 13  1  0
 13 14  1  0
 14 15  1  0
 15 16  1  0
 11 17  1  0
 17 18  1  0
 18 19  1  0
 17 20  2  0
  6 21  1  0
 21 22  2  0
 21 23  1  0
 23 24  1  0
 24 25  2  0
 25 26  1  0
 26 27  2  0
 27 28  1  0
 28 29  2  0
 29 30  1  0
 30 31  2  0
 31 32  1  0
 32 33  2  0
 33 34  1  0
 34 35  2  0
  5 36  2  0
 36 37  1  0
 37 38  2  0
 38 39  1  0
 39 40  1  0
 40 41  1  0
 41 42  1  0
 42 43  1  0
 38  3  1  0
 43 41  1  0
 20  7  1  0
 35 21  1  0
 16 14  1  0
 29 24  1  0
 35 30  1  0
M  END
>  <Candidate_ID>  (283) 
CAND_R2_283

>  <Candidate_Name>  (283) 
DGEBDB-amino

>  <Parent_Seed_ID>  (283) 
TRAIN_004

>  <Parent_Name>  (283) 
DGEBDB

>  <Transformation_Code>  (283) 
amino

>  <Design_Family>  (283) 
P-N

>  <Preparation_Type>  (283) 
Co-curing

>  <Synthesis_Level>  (283) 
B

>  <Parent_Tanimoto_r3>  (283) 
0.7849462365591398

>  <Max_Train_Tanimoto_r3>  (283) 
0.7849462365591398

>  <Risk_Flags>  (283) 
none

$$$$
CAND_R2_284 | DGEBDB-hydroxy
     RDKit          2D

 43 49  0  0  0  0  0  0  0  0999 V2000
   -1.0272   -8.7799    0.0000 C   0  0  0  0  0  0  0  0  0  0  0  0
    0.3824   -9.2929    0.0000 O   0  0  0  0  0  0  0  0  0  0  0  0
    1.5314   -8.3287    0.0000 C   0  0  0  0  0  0  0  0  0  0  0  0
    1.2709   -6.8515    0.0000 C   0  0  0  0  0  0  0  0  0  0  0  0
    2.4200   -5.8874    0.0000 C   0  0  0  0  0  0  0  0  0  0  0  0
    2.1595   -4.4101    0.0000 C   0  0  0  0  0  0  0  0  0  0  0  0
    3.3086   -3.4460    0.0000 C   0  0  0  0  0  0  0  0  0  0  0  0
    4.7181   -3.9590    0.0000 C   0  0  0  0  0  0  0  0  0  0  0  0
    5.8672   -2.9948    0.0000 C   0  0  0  0  0  0  0  0  0  0  0  0
    7.2768   -3.5078    0.0000 O   0  0  0  0  0  0  0  0  0  0  0  0
    5.6067   -1.5176    0.0000 C   0  0  0  0  0  0  0  0  0  0  0  0
    6.7558   -0.5534    0.0000 O   0  0  0  0  0  0  0  0  0  0  0  0
    6.4953    0.9238    0.0000 C   0  0  0  0  0  0  0  0  0  0  0  0
    7.6444    1.8880    0.0000 C   0  0  0  0  0  0  0  0  0  0  0  0
    8.1574    3.2975    0.0000 C   0  0  0  0  0  0  0  0  0  0  0  0
    9.1216    2.1484    0.0000 O   0  0  0  0  0  0  0  0  0  0  0  0
    4.1972   -1.0046    0.0000 C   0  0  0  0  0  0  0  0  0  0  0  0
    3.9367    0.4726    0.0000 O   0  0  0  0  0  0  0  0  0  0  0  0
    5.0858    1.4368    0.0000 C   0  0  0  0  0  0  0  0  0  0  0  0
    3.0481   -1.9688    0.0000 C   0  0  0  0  0  0  0  0  0  0  0  0
    0.7500   -3.8971    0.0000 P   0  0  0  0  0  0  0  0  0  0  0  0
    0.4895   -5.3743    0.0000 O   0  0  0  0  0  0  0  0  0  0  0  0
    1.5000   -2.5981    0.0000 O   0  0  0  0  0  0  0  0  0  0  0  0
    0.7500   -1.2990    0.0000 C   0  0  0  0  0  0  0  0  0  0  0  0
    1.5000    0.0000    0.0000 C   0  0  0  0  0  0  0  0  0  0  0  0
    0.7500    1.2990    0.0000 C   0  0  0  0  0  0  0  0  0  0  0  0
   -0.7500    1.2990    0.0000 C   0  0  0  0  0  0  0  0  0  0  0  0
   -1.5000    0.0000    0.0000 C   0  0  0  0  0  0  0  0  0  0  0  0
   -0.7500   -1.2990    0.0000 C   0  0  0  0  0  0  0  0  0  0  0  0
   -1.5000   -2.5981    0.0000 C   0  0  0  0  0  0  0  0  0  0  0  0
   -3.0000   -2.5981    0.0000 C   0  0  0  0  0  0  0  0  0  0  0  0
   -3.7500   -3.8971    0.0000 C   0  0  0  0  0  0  0  0  0  0  0  0
   -3.0000   -5.1962    0.0000 C   0  0  0  0  0  0  0  0  0  0  0  0
   -1.5000   -5.1962    0.0000 C   0  0  0  0  0  0  0  0  0  0  0  0
   -0.7500   -3.8971    0.0000 C   0  0  0  0  0  0  0  0  0  0  0  0
    3.8296   -6.4004    0.0000 C   0  0  0  0  0  0  0  0  0  0  0  0
    4.0900   -7.8776    0.0000 C   0  0  0  0  0  0  0  0  0  0  0  0
    2.9410   -8.8418    0.0000 C   0  0  0  0  0  0  0  0  0  0  0  0
    3.2014  -10.3190    0.0000 O   0  0  0  0  0  0  0  0  0  0  0  0
    4.6110  -10.8320    0.0000 C   0  0  0  0  0  0  0  0  0  0  0  0
    4.8714  -12.3092    0.0000 C   0  0  0  0  0  0  0  0  0  0  0  0
    5.8356  -13.4583    0.0000 C   0  0  0  0  0  0  0  0  0  0  0  0
    4.3584  -13.7188    0.0000 O   0  0  0  0  0  0  0  0  0  0  0  0
  1  2  1  0
  2  3  1  0
  3  4  2  0
  4  5  1  0
  5  6  1  0
  6  7  1  0
  7  8  2  0
  8  9  1  0
  9 10  1  0
  9 11  2  0
 11 12  1  0
 12 13  1  0
 13 14  1  0
 14 15  1  0
 15 16  1  0
 11 17  1  0
 17 18  1  0
 18 19  1  0
 17 20  2  0
  6 21  1  0
 21 22  2  0
 21 23  1  0
 23 24  1  0
 24 25  2  0
 25 26  1  0
 26 27  2  0
 27 28  1  0
 28 29  2  0
 29 30  1  0
 30 31  2  0
 31 32  1  0
 32 33  2  0
 33 34  1  0
 34 35  2  0
  5 36  2  0
 36 37  1  0
 37 38  2  0
 38 39  1  0
 39 40  1  0
 40 41  1  0
 41 42  1  0
 42 43  1  0
 38  3  1  0
 43 41  1  0
 20  7  1  0
 35 21  1  0
 16 14  1  0
 29 24  1  0
 35 30  1  0
M  END
>  <Candidate_ID>  (284) 
CAND_R2_284

>  <Candidate_Name>  (284) 
DGEBDB-hydroxy

>  <Parent_Seed_ID>  (284) 
TRAIN_004

>  <Parent_Name>  (284) 
DGEBDB

>  <Transformation_Code>  (284) 
hydroxy

>  <Design_Family>  (284) 
P-only

>  <Preparation_Type>  (284) 
Additive

>  <Synthesis_Level>  (284) 
B

>  <Parent_Tanimoto_r3>  (284) 
0.7849462365591398

>  <Max_Train_Tanimoto_r3>  (284) 
0.7849462365591398

>  <Risk_Flags>  (284) 
none

$$$$
CAND_R2_285 | DGEBDB-hydroxymethyl
     RDKit          2D

 44 50  0  0  0  0  0  0  0  0999 V2000
   -1.0272   -8.7799    0.0000 C   0  0  0  0  0  0  0  0  0  0  0  0
    0.3824   -9.2929    0.0000 O   0  0  0  0  0  0  0  0  0  0  0  0
    1.5314   -8.3287    0.0000 C   0  0  0  0  0  0  0  0  0  0  0  0
    1.2709   -6.8515    0.0000 C   0  0  0  0  0  0  0  0  0  0  0  0
    2.4200   -5.8874    0.0000 C   0  0  0  0  0  0  0  0  0  0  0  0
    2.1595   -4.4101    0.0000 C   0  0  0  0  0  0  0  0  0  0  0  0
    3.3086   -3.4460    0.0000 C   0  0  0  0  0  0  0  0  0  0  0  0
    4.7181   -3.9590    0.0000 C   0  0  0  0  0  0  0  0  0  0  0  0
    5.8672   -2.9948    0.0000 C   0  0  0  0  0  0  0  0  0  0  0  0
    7.2768   -3.5078    0.0000 C   0  0  0  0  0  0  0  0  0  0  0  0
    7.5372   -4.9851    0.0000 O   0  0  0  0  0  0  0  0  0  0  0  0
    5.6067   -1.5176    0.0000 C   0  0  0  0  0  0  0  0  0  0  0  0
    6.7558   -0.5534    0.0000 O   0  0  0  0  0  0  0  0  0  0  0  0
    6.4953    0.9238    0.0000 C   0  0  0  0  0  0  0  0  0  0  0  0
    7.6444    1.8880    0.0000 C   0  0  0  0  0  0  0  0  0  0  0  0
    8.1574    3.2975    0.0000 C   0  0  0  0  0  0  0  0  0  0  0  0
    9.1216    2.1484    0.0000 O   0  0  0  0  0  0  0  0  0  0  0  0
    4.1972   -1.0046    0.0000 C   0  0  0  0  0  0  0  0  0  0  0  0
    3.9367    0.4726    0.0000 O   0  0  0  0  0  0  0  0  0  0  0  0
    5.0858    1.4368    0.0000 C   0  0  0  0  0  0  0  0  0  0  0  0
    3.0481   -1.9688    0.0000 C   0  0  0  0  0  0  0  0  0  0  0  0
    0.7500   -3.8971    0.0000 P   0  0  0  0  0  0  0  0  0  0  0  0
    0.4895   -5.3743    0.0000 O   0  0  0  0  0  0  0  0  0  0  0  0
    1.5000   -2.5981    0.0000 O   0  0  0  0  0  0  0  0  0  0  0  0
    0.7500   -1.2990    0.0000 C   0  0  0  0  0  0  0  0  0  0  0  0
    1.5000    0.0000    0.0000 C   0  0  0  0  0  0  0  0  0  0  0  0
    0.7500    1.2990    0.0000 C   0  0  0  0  0  0  0  0  0  0  0  0
   -0.7500    1.2990    0.0000 C   0  0  0  0  0  0  0  0  0  0  0  0
   -1.5000    0.0000    0.0000 C   0  0  0  0  0  0  0  0  0  0  0  0
   -0.7500   -1.2990    0.0000 C   0  0  0  0  0  0  0  0  0  0  0  0
   -1.5000   -2.5981    0.0000 C   0  0  0  0  0  0  0  0  0  0  0  0
   -3.0000   -2.5981    0.0000 C   0  0  0  0  0  0  0  0  0  0  0  0
   -3.7500   -3.8971    0.0000 C   0  0  0  0  0  0  0  0  0  0  0  0
   -3.0000   -5.1962    0.0000 C   0  0  0  0  0  0  0  0  0  0  0  0
   -1.5000   -5.1962    0.0000 C   0  0  0  0  0  0  0  0  0  0  0  0
   -0.7500   -3.8971    0.0000 C   0  0  0  0  0  0  0  0  0  0  0  0
    3.8296   -6.4004    0.0000 C   0  0  0  0  0  0  0  0  0  0  0  0
    4.0900   -7.8776    0.0000 C   0  0  0  0  0  0  0  0  0  0  0  0
    2.9410   -8.8418    0.0000 C   0  0  0  0  0  0  0  0  0  0  0  0
    3.2014  -10.3190    0.0000 O   0  0  0  0  0  0  0  0  0  0  0  0
    4.6110  -10.8320    0.0000 C   0  0  0  0  0  0  0  0  0  0  0  0
    4.8714  -12.3092    0.0000 C   0  0  0  0  0  0  0  0  0  0  0  0
    5.8356  -13.4583    0.0000 C   0  0  0  0  0  0  0  0  0  0  0  0
    4.3584  -13.7188    0.0000 O   0  0  0  0  0  0  0  0  0  0  0  0
  1  2  1  0
  2  3  1  0
  3  4  2  0
  4  5  1  0
  5  6  1  0
  6  7  1  0
  7  8  2  0
  8  9  1  0
  9 10  1  0
 10 11  1  0
  9 12  2  0
 12 13  1  0
 13 14  1  0
 14 15  1  0
 15 16  1  0
 16 17  1  0
 12 18  1  0
 18 19  1  0
 19 20  1  0
 18 21  2  0
  6 22  1  0
 22 23  2  0
 22 24  1  0
 24 25  1  0
 25 26  2  0
 26 27  1  0
 27 28  2  0
 28 29  1  0
 29 30  2  0
 30 31  1  0
 31 32  2  0
 32 33  1  0
 33 34  2  0
 34 35  1  0
 35 36  2  0
  5 37  2  0
 37 38  1  0
 38 39  2  0
 39 40  1  0
 40 41  1  0
 41 42  1  0
 42 43  1  0
 43 44  1  0
 39  3  1  0
 44 42  1  0
 21  7  1  0
 36 22  1  0
 17 15  1  0
 30 25  1  0
 36 31  1  0
M  END
>  <Candidate_ID>  (285) 
CAND_R2_285

>  <Candidate_Name>  (285) 
DGEBDB-hydroxymethyl

>  <Parent_Seed_ID>  (285) 
TRAIN_004

>  <Parent_Name>  (285) 
DGEBDB

>  <Transformation_Code>  (285) 
hydroxymethyl

>  <Design_Family>  (285) 
P-only

>  <Preparation_Type>  (285) 
Additive

>  <Synthesis_Level>  (285) 
B

>  <Parent_Tanimoto_r3>  (285) 
0.7684210526315789

>  <Max_Train_Tanimoto_r3>  (285) 
0.7684210526315789

>  <Risk_Flags>  (285) 
none

$$$$
CAND_R2_286 | DGEBDB-carboxamide
     RDKit          2D

 45 51  0  0  0  0  0  0  0  0999 V2000
   -1.0272   -8.7799    0.0000 C   0  0  0  0  0  0  0  0  0  0  0  0
    0.3824   -9.2929    0.0000 O   0  0  0  0  0  0  0  0  0  0  0  0
    1.5314   -8.3287    0.0000 C   0  0  0  0  0  0  0  0  0  0  0  0
    1.2709   -6.8515    0.0000 C   0  0  0  0  0  0  0  0  0  0  0  0
    2.4200   -5.8874    0.0000 C   0  0  0  0  0  0  0  0  0  0  0  0
    2.1595   -4.4101    0.0000 C   0  0  0  0  0  0  0  0  0  0  0  0
    3.3086   -3.4460    0.0000 C   0  0  0  0  0  0  0  0  0  0  0  0
    4.7181   -3.9590    0.0000 C   0  0  0  0  0  0  0  0  0  0  0  0
    5.8672   -2.9948    0.0000 C   0  0  0  0  0  0  0  0  0  0  0  0
    7.2768   -3.5078    0.0000 O   0  0  0  0  0  0  0  0  0  0  0  0
    7.5372   -4.9851    0.0000 C   0  0  0  0  0  0  0  0  0  0  0  0
    5.6067   -1.5176    0.0000 C   0  0  0  0  0  0  0  0  0  0  0  0
    6.7558   -0.5534    0.0000 O   0  0  0  0  0  0  0  0  0  0  0  0
    6.4953    0.9238    0.0000 C   0  0  0  0  0  0  0  0  0  0  0  0
    7.6444    1.8880    0.0000 C   0  0  0  0  0  0  0  0  0  0  0  0
    8.1574    3.2975    0.0000 C   0  0  0  0  0  0  0  0  0  0  0  0
    9.1216    2.1484    0.0000 O   0  0  0  0  0  0  0  0  0  0  0  0
    4.1972   -1.0046    0.0000 C   0  0  0  0  0  0  0  0  0  0  0  0
    3.9367    0.4726    0.0000 C   0  0  0  0  0  0  0  0  0  0  0  0
    5.0858    1.4368    0.0000 N   0  0  0  0  0  0  0  0  0  0  0  0
    2.5272    0.9857    0.0000 O   0  0  0  0  0  0  0  0  0  0  0  0
    3.0481   -1.9688    0.0000 C   0  0  0  0  0  0  0  0  0  0  0  0
    0.7500   -3.8971    0.0000 P   0  0  0  0  0  0  0  0  0  0  0  0
    0.4895   -5.3743    0.0000 O   0  0  0  0  0  0  0  0  0  0  0  0
    1.5000   -2.5981    0.0000 O   0  0  0  0  0  0  0  0  0  0  0  0
    0.7500   -1.2990    0.0000 C   0  0  0  0  0  0  0  0  0  0  0  0
    1.5000    0.0000    0.0000 C   0  0  0  0  0  0  0  0  0  0  0  0
    0.7500    1.2990    0.0000 C   0  0  0  0  0  0  0  0  0  0  0  0
   -0.7500    1.2990    0.0000 C   0  0  0  0  0  0  0  0  0  0  0  0
   -1.5000    0.0000    0.0000 C   0  0  0  0  0  0  0  0  0  0  0  0
   -0.7500   -1.2990    0.0000 C   0  0  0  0  0  0  0  0  0  0  0  0
   -1.5000   -2.5981    0.0000 C   0  0  0  0  0  0  0  0  0  0  0  0
   -3.0000   -2.5981    0.0000 C   0  0  0  0  0  0  0  0  0  0  0  0
   -3.7500   -3.8971    0.0000 C   0  0  0  0  0  0  0  0  0  0  0  0
   -3.0000   -5.1962    0.0000 C   0  0  0  0  0  0  0  0  0  0  0  0
   -1.5000   -5.1962    0.0000 C   0  0  0  0  0  0  0  0  0  0  0  0
   -0.7500   -3.8971    0.0000 C   0  0  0  0  0  0  0  0  0  0  0  0
    3.8296   -6.4004    0.0000 C   0  0  0  0  0  0  0  0  0  0  0  0
    4.0900   -7.8776    0.0000 C   0  0  0  0  0  0  0  0  0  0  0  0
    2.9410   -8.8418    0.0000 C   0  0  0  0  0  0  0  0  0  0  0  0
    3.2014  -10.3190    0.0000 O   0  0  0  0  0  0  0  0  0  0  0  0
    4.6110  -10.8320    0.0000 C   0  0  0  0  0  0  0  0  0  0  0  0
    4.8714  -12.3092    0.0000 C   0  0  0  0  0  0  0  0  0  0  0  0
    5.8356  -13.4583    0.0000 C   0  0  0  0  0  0  0  0  0  0  0  0
    4.3584  -13.7188    0.0000 O   0  0  0  0  0  0  0  0  0  0  0  0
  1  2  1  0
  2  3  1  0
  3  4  2  0
  4  5  1  0
  5  6  1  0
  6  7  1  0
  7  8  2  0
  8  9  1  0
  9 10  1  0
 10 11  1  0
  9 12  2  0
 12 13  1  0
 13 14  1  0
 14 15  1  0
 15 16  1  0
 16 17  1  0
 12 18  1  0
 18 19  1  0
 19 20  1  0
 19 21  2  0
 18 22  2  0
  6 23  1  0
 23 24  2  0
 23 25  1  0
 25 26  1  0
 26 27  2  0
 27 28  1  0
 28 29  2  0
 29 30  1  0
 30 31  2  0
 31 32  1  0
 32 33  2  0
 33 34  1  0
 34 35  2  0
 35 36  1  0
 36 37  2  0
  5 38  2  0
 38 39  1  0
 39 40  2  0
 40 41  1  0
 41 42  1  0
 42 43  1  0
 43 44  1  0
 44 45  1  0
 40  3  1  0
 45 43  1  0
 22  7  1  0
 37 23  1  0
 17 15  1  0
 31 26  1  0
 37 32  1  0
M  END
>  <Candidate_ID>  (286) 
CAND_R2_286

>  <Candidate_Name>  (286) 
DGEBDB-carboxamide

>  <Parent_Seed_ID>  (286) 
TRAIN_004

>  <Parent_Name>  (286) 
DGEBDB

>  <Transformation_Code>  (286) 
carboxamide

>  <Design_Family>  (286) 
P-N

>  <Preparation_Type>  (286) 
Additive

>  <Synthesis_Level>  (286) 
B

>  <Parent_Tanimoto_r3>  (286) 
0.7684210526315789

>  <Max_Train_Tanimoto_r3>  (286) 
0.7684210526315789

>  <Risk_Flags>  (286) 
none

$$$$
CAND_R2_287 | DGEBDB-boronic-acid
     RDKit          2D

 45 51  0  0  0  0  0  0  0  0999 V2000
   -1.0272   -8.7799    0.0000 C   0  0  0  0  0  0  0  0  0  0  0  0
    0.3824   -9.2929    0.0000 O   0  0  0  0  0  0  0  0  0  0  0  0
    1.5314   -8.3287    0.0000 C   0  0  0  0  0  0  0  0  0  0  0  0
    1.2709   -6.8515    0.0000 C   0  0  0  0  0  0  0  0  0  0  0  0
    2.4200   -5.8874    0.0000 C   0  0  0  0  0  0  0  0  0  0  0  0
    2.1595   -4.4101    0.0000 C   0  0  0  0  0  0  0  0  0  0  0  0
    3.3086   -3.4460    0.0000 C   0  0  0  0  0  0  0  0  0  0  0  0
    4.7181   -3.9590    0.0000 C   0  0  0  0  0  0  0  0  0  0  0  0
    5.8672   -2.9948    0.0000 C   0  0  0  0  0  0  0  0  0  0  0  0
    7.2768   -3.5078    0.0000 O   0  0  0  0  0  0  0  0  0  0  0  0
    7.5372   -4.9851    0.0000 C   0  0  0  0  0  0  0  0  0  0  0  0
    5.6067   -1.5176    0.0000 C   0  0  0  0  0  0  0  0  0  0  0  0
    6.7558   -0.5534    0.0000 O   0  0  0  0  0  0  0  0  0  0  0  0
    6.4953    0.9238    0.0000 C   0  0  0  0  0  0  0  0  0  0  0  0
    7.6444    1.8880    0.0000 C   0  0  0  0  0  0  0  0  0  0  0  0
    8.1574    3.2975    0.0000 C   0  0  0  0  0  0  0  0  0  0  0  0
    9.1216    2.1484    0.0000 O   0  0  0  0  0  0  0  0  0  0  0  0
    4.1972   -1.0046    0.0000 C   0  0  0  0  0  0  0  0  0  0  0  0
    3.9367    0.4726    0.0000 B   0  0  0  0  0  0  0  0  0  0  0  0
    5.0858    1.4368    0.0000 O   0  0  0  0  0  0  0  0  0  0  0  0
    2.5272    0.9857    0.0000 O   0  0  0  0  0  0  0  0  0  0  0  0
    3.0481   -1.9688    0.0000 C   0  0  0  0  0  0  0  0  0  0  0  0
    0.7500   -3.8971    0.0000 P   0  0  0  0  0  0  0  0  0  0  0  0
    0.4895   -5.3743    0.0000 O   0  0  0  0  0  0  0  0  0  0  0  0
    1.5000   -2.5981    0.0000 O   0  0  0  0  0  0  0  0  0  0  0  0
    0.7500   -1.2990    0.0000 C   0  0  0  0  0  0  0  0  0  0  0  0
    1.5000    0.0000    0.0000 C   0  0  0  0  0  0  0  0  0  0  0  0
    0.7500    1.2990    0.0000 C   0  0  0  0  0  0  0  0  0  0  0  0
   -0.7500    1.2990    0.0000 C   0  0  0  0  0  0  0  0  0  0  0  0
   -1.5000    0.0000    0.0000 C   0  0  0  0  0  0  0  0  0  0  0  0
   -0.7500   -1.2990    0.0000 C   0  0  0  0  0  0  0  0  0  0  0  0
   -1.5000   -2.5981    0.0000 C   0  0  0  0  0  0  0  0  0  0  0  0
   -3.0000   -2.5981    0.0000 C   0  0  0  0  0  0  0  0  0  0  0  0
   -3.7500   -3.8971    0.0000 C   0  0  0  0  0  0  0  0  0  0  0  0
   -3.0000   -5.1962    0.0000 C   0  0  0  0  0  0  0  0  0  0  0  0
   -1.5000   -5.1962    0.0000 C   0  0  0  0  0  0  0  0  0  0  0  0
   -0.7500   -3.8971    0.0000 C   0  0  0  0  0  0  0  0  0  0  0  0
    3.8296   -6.4004    0.0000 C   0  0  0  0  0  0  0  0  0  0  0  0
    4.0900   -7.8776    0.0000 C   0  0  0  0  0  0  0  0  0  0  0  0
    2.9410   -8.8418    0.0000 C   0  0  0  0  0  0  0  0  0  0  0  0
    3.2014  -10.3190    0.0000 O   0  0  0  0  0  0  0  0  0  0  0  0
    4.6110  -10.8320    0.0000 C   0  0  0  0  0  0  0  0  0  0  0  0
    4.8714  -12.3092    0.0000 C   0  0  0  0  0  0  0  0  0  0  0  0
    5.8356  -13.4583    0.0000 C   0  0  0  0  0  0  0  0  0  0  0  0
    4.3584  -13.7188    0.0000 O   0  0  0  0  0  0  0  0  0  0  0  0
  1  2  1  0
  2  3  1  0
  3  4  2  0
  4  5  1  0
  5  6  1  0
  6  7  1  0
  7  8  2  0
  8  9  1  0
  9 10  1  0
 10 11  1  0
  9 12  2  0
 12 13  1  0
 13 14  1  0
 14 15  1  0
 15 16  1  0
 16 17  1  0
 12 18  1  0
 18 19  1  0
 19 20  1  0
 19 21  1  0
 18 22  2  0
  6 23  1  0
 23 24  2  0
 23 25  1  0
 25 26  1  0
 26 27  2  0
 27 28  1  0
 28 29  2  0
 29 30  1  0
 30 31  2  0
 31 32  1  0
 32 33  2  0
 33 34  1  0
 34 35  2  0
 35 36  1  0
 36 37  2  0
  5 38  2  0
 38 39  1  0
 39 40  2  0
 40 41  1  0
 41 42  1  0
 42 43  1  0
 43 44  1  0
 44 45  1  0
 40  3  1  0
 45 43  1  0
 22  7  1  0
 37 23  1  0
 17 15  1  0
 31 26  1  0
 37 32  1  0
M  END
>  <Candidate_ID>  (287) 
CAND_R2_287

>  <Candidate_Name>  (287) 
DGEBDB-boronic-acid

>  <Parent_Seed_ID>  (287) 
TRAIN_004

>  <Parent_Name>  (287) 
DGEBDB

>  <Transformation_Code>  (287) 
boronic_acid

>  <Design_Family>  (287) 
P-B

>  <Preparation_Type>  (287) 
Additive

>  <Synthesis_Level>  (287) 
B

>  <Parent_Tanimoto_r3>  (287) 
0.7684210526315789

>  <Max_Train_Tanimoto_r3>  (287) 
0.7684210526315789

>  <Risk_Flags>  (287) 
none

$$$$
CAND_R2_288 | DGEBDB-pinacol-boronate
     RDKit          2D

 51 58  0  0  0  0  0  0  0  0999 V2000
   -1.0272   -8.7799    0.0000 C   0  0  0  0  0  0  0  0  0  0  0  0
    0.3824   -9.2929    0.0000 O   0  0  0  0  0  0  0  0  0  0  0  0
    1.5314   -8.3287    0.0000 C   0  0  0  0  0  0  0  0  0  0  0  0
    1.2709   -6.8515    0.0000 C   0  0  0  0  0  0  0  0  0  0  0  0
    2.4200   -5.8874    0.0000 C   0  0  0  0  0  0  0  0  0  0  0  0
    2.1595   -4.4101    0.0000 C   0  0  0  0  0  0  0  0  0  0  0  0
    3.3086   -3.4460    0.0000 C   0  0  0  0  0  0  0  0  0  0  0  0
    4.7181   -3.9590    0.0000 C   0  0  0  0  0  0  0  0  0  0  0  0
    5.8672   -2.9948    0.0000 C   0  0  0  0  0  0  0  0  0  0  0  0
    7.2768   -3.5078    0.0000 O   0  0  0  0  0  0  0  0  0  0  0  0
    7.5372   -4.9851    0.0000 C   0  0  0  0  0  0  0  0  0  0  0  0
    5.6067   -1.5176    0.0000 C   0  0  0  0  0  0  0  0  0  0  0  0
    6.7558   -0.5534    0.0000 O   0  0  0  0  0  0  0  0  0  0  0  0
    6.4953    0.9238    0.0000 C   0  0  0  0  0  0  0  0  0  0  0  0
    7.6444    1.8880    0.0000 C   0  0  0  0  0  0  0  0  0  0  0  0
    8.1574    3.2975    0.0000 C   0  0  0  0  0  0  0  0  0  0  0  0
    9.1216    2.1484    0.0000 O   0  0  0  0  0  0  0  0  0  0  0  0
    4.1972   -1.0046    0.0000 C   0  0  0  0  0  0  0  0  0  0  0  0
    3.9367    0.4726    0.0000 B   0  0  0  0  0  0  0  0  0  0  0  0
    2.5885    1.1302    0.0000 O   0  0  0  0  0  0  0  0  0  0  0  0
    2.7973    2.6156    0.0000 C   0  0  0  0  0  0  0  0  0  0  0  0
    1.2982    2.6679    0.0000 C   0  0  0  0  0  0  0  0  0  0  0  0
    2.6927    4.1119    0.0000 C   0  0  0  0  0  0  0  0  0  0  0  0
    4.2745    2.8761    0.0000 C   0  0  0  0  0  0  0  0  0  0  0  0
    3.8611    4.3180    0.0000 C   0  0  0  0  0  0  0  0  0  0  0  0
    5.6653    3.4380    0.0000 C   0  0  0  0  0  0  0  0  0  0  0  0
    4.9787    1.5517    0.0000 O   0  0  0  0  0  0  0  0  0  0  0  0
    3.0481   -1.9688    0.0000 C   0  0  0  0  0  0  0  0  0  0  0  0
    0.7500   -3.8971    0.0000 P   0  0  0  0  0  0  0  0  0  0  0  0
    0.4895   -5.3743    0.0000 O   0  0  0  0  0  0  0  0  0  0  0  0
    1.5000   -2.5981    0.0000 O   0  0  0  0  0  0  0  0  0  0  0  0
    0.7500   -1.2990    0.0000 C   0  0  0  0  0  0  0  0  0  0  0  0
    1.5000    0.0000    0.0000 C   0  0  0  0  0  0  0  0  0  0  0  0
    0.7500    1.2990    0.0000 C   0  0  0  0  0  0  0  0  0  0  0  0
   -0.7500    1.2990    0.0000 C   0  0  0  0  0  0  0  0  0  0  0  0
   -1.5000    0.0000    0.0000 C   0  0  0  0  0  0  0  0  0  0  0  0
   -0.7500   -1.2990    0.0000 C   0  0  0  0  0  0  0  0  0  0  0  0
   -1.5000   -2.5981    0.0000 C   0  0  0  0  0  0  0  0  0  0  0  0
   -3.0000   -2.5981    0.0000 C   0  0  0  0  0  0  0  0  0  0  0  0
   -3.7500   -3.8971    0.0000 C   0  0  0  0  0  0  0  0  0  0  0  0
   -3.0000   -5.1962    0.0000 C   0  0  0  0  0  0  0  0  0  0  0  0
   -1.5000   -5.1962    0.0000 C   0  0  0  0  0  0  0  0  0  0  0  0
   -0.7500   -3.8971    0.0000 C   0  0  0  0  0  0  0  0  0  0  0  0
    3.8296   -6.4004    0.0000 C   0  0  0  0  0  0  0  0  0  0  0  0
    4.0900   -7.8776    0.0000 C   0  0  0  0  0  0  0  0  0  0  0  0
    2.9410   -8.8418    0.0000 C   0  0  0  0  0  0  0  0  0  0  0  0
    3.2014  -10.3190    0.0000 O   0  0  0  0  0  0  0  0  0  0  0  0
    4.6110  -10.8320    0.0000 C   0  0  0  0  0  0  0  0  0  0  0  0
    4.8714  -12.3092    0.0000 C   0  0  0  0  0  0  0  0  0  0  0  0
    5.8356  -13.4583    0.0000 C   0  0  0  0  0  0  0  0  0  0  0  0
    4.3584  -13.7188    0.0000 O   0  0  0  0  0  0  0  0  0  0  0  0
  1  2  1  0
  2  3  1  0
  3  4  2  0
  4  5  1  0
  5  6  1  0
  6  7  1  0
  7  8  2  0
  8  9  1  0
  9 10  1  0
 10 11  1  0
  9 12  2  0
 12 13  1  0
 13 14  1  0
 14 15  1  0
 15 16  1  0
 16 17  1  0
 12 18  1  0
 18 19  1  0
 19 20  1  0
 20 21  1  0
 21 22  1  0
 21 23  1  0
 21 24  1  0
 24 25  1  0
 24 26  1  0
 24 27  1  0
 18 28  2  0
  6 29  1  0
 29 30  2  0
 29 31  1  0
 31 32  1  0
 32 33  2  0
 33 34  1  0
 34 35  2  0
 35 36  1  0
 36 37  2  0
 37 38  1  0
 38 39  2  0
 39 40  1  0
 40 41  2  0
 41 42  1  0
 42 43  2  0
  5 44  2  0
 44 45  1  0
 45 46  2  0
 46 47  1  0
 47 48  1  0
 48 49  1  0
 49 50  1  0
 50 51  1  0
 46  3  1  0
 51 49  1  0
 28  7  1  0
 43 29  1  0
 17 15  1  0
 27 19  1  0
 37 32  1  0
 43 38  1  0
M  END
>  <Candidate_ID>  (288) 
CAND_R2_288

>  <Candidate_Name>  (288) 
DGEBDB-pinacol-boronate

>  <Parent_Seed_ID>  (288) 
TRAIN_004

>  <Parent_Name>  (288) 
DGEBDB

>  <Transformation_Code>  (288) 
pinacol_boronate

>  <Design_Family>  (288) 
P-B

>  <Preparation_Type>  (288) 
Additive

>  <Synthesis_Level>  (288) 
B

>  <Parent_Tanimoto_r3>  (288) 
0.7156862745098039

>  <Max_Train_Tanimoto_r3>  (288) 
0.7156862745098039

>  <Risk_Flags>  (288) 
none

$$$$
CAND_R2_289 | DGEBDB-trimethoxysilyl
     RDKit          2D

 49 55  0  0  0  0  0  0  0  0999 V2000
   -1.0272   -8.7799    0.0000 C   0  0  0  0  0  0  0  0  0  0  0  0
    0.3824   -9.2929    0.0000 O   0  0  0  0  0  0  0  0  0  0  0  0
    1.5314   -8.3287    0.0000 C   0  0  0  0  0  0  0  0  0  0  0  0
    1.2709   -6.8515    0.0000 C   0  0  0  0  0  0  0  0  0  0  0  0
    2.4200   -5.8874    0.0000 C   0  0  0  0  0  0  0  0  0  0  0  0
    2.1595   -4.4101    0.0000 C   0  0  0  0  0  0  0  0  0  0  0  0
    3.3086   -3.4460    0.0000 C   0  0  0  0  0  0  0  0  0  0  0  0
    4.7181   -3.9590    0.0000 C   0  0  0  0  0  0  0  0  0  0  0  0
    5.8672   -2.9948    0.0000 C   0  0  0  0  0  0  0  0  0  0  0  0
    7.2768   -3.5078    0.0000 O   0  0  0  0  0  0  0  0  0  0  0  0
    7.5372   -4.9851    0.0000 C   0  0  0  0  0  0  0  0  0  0  0  0
    5.6067   -1.5176    0.0000 C   0  0  0  0  0  0  0  0  0  0  0  0
    6.7558   -0.5534    0.0000 O   0  0  0  0  0  0  0  0  0  0  0  0
    6.4953    0.9238    0.0000 C   0  0  0  0  0  0  0  0  0  0  0  0
    7.6444    1.8880    0.0000 C   0  0  0  0  0  0  0  0  0  0  0  0
    8.1574    3.2975    0.0000 C   0  0  0  0  0  0  0  0  0  0  0  0
    9.1216    2.1484    0.0000 O   0  0  0  0  0  0  0  0  0  0  0  0
    4.1972   -1.0046    0.0000 C   0  0  0  0  0  0  0  0  0  0  0  0
    3.9367    0.4726    0.0000 Si  0  0  0  0  0  4  0  0  0  0  0  0
    3.6763    1.9499    0.0000 O   0  0  0  0  0  0  0  0  0  0  0  0
    4.8253    2.9140    0.0000 C   0  0  0  0  0  0  0  0  0  0  0  0
    5.4139    0.7331    0.0000 O   0  0  0  0  0  0  0  0  0  0  0  0
    5.9270    2.1427    0.0000 C   0  0  0  0  0  0  0  0  0  0  0  0
    2.4595    0.2122    0.0000 O   0  0  0  0  0  0  0  0  0  0  0  0
    1.4953    1.3612    0.0000 C   0  0  0  0  0  0  0  0  0  0  0  0
    3.0481   -1.9688    0.0000 C   0  0  0  0  0  0  0  0  0  0  0  0
    0.7500   -3.8971    0.0000 P   0  0  0  0  0  0  0  0  0  0  0  0
    0.4895   -5.3743    0.0000 O   0  0  0  0  0  0  0  0  0  0  0  0
    1.5000   -2.5981    0.0000 O   0  0  0  0  0  0  0  0  0  0  0  0
    0.7500   -1.2990    0.0000 C   0  0  0  0  0  0  0  0  0  0  0  0
    1.5000    0.0000    0.0000 C   0  0  0  0  0  0  0  0  0  0  0  0
    0.7500    1.2990    0.0000 C   0  0  0  0  0  0  0  0  0  0  0  0
   -0.7500    1.2990    0.0000 C   0  0  0  0  0  0  0  0  0  0  0  0
   -1.5000    0.0000    0.0000 C   0  0  0  0  0  0  0  0  0  0  0  0
   -0.7500   -1.2990    0.0000 C   0  0  0  0  0  0  0  0  0  0  0  0
   -1.5000   -2.5981    0.0000 C   0  0  0  0  0  0  0  0  0  0  0  0
   -3.0000   -2.5981    0.0000 C   0  0  0  0  0  0  0  0  0  0  0  0
   -3.7500   -3.8971    0.0000 C   0  0  0  0  0  0  0  0  0  0  0  0
   -3.0000   -5.1962    0.0000 C   0  0  0  0  0  0  0  0  0  0  0  0
   -1.5000   -5.1962    0.0000 C   0  0  0  0  0  0  0  0  0  0  0  0
   -0.7500   -3.8971    0.0000 C   0  0  0  0  0  0  0  0  0  0  0  0
    3.8296   -6.4004    0.0000 C   0  0  0  0  0  0  0  0  0  0  0  0
    4.0900   -7.8776    0.0000 C   0  0  0  0  0  0  0  0  0  0  0  0
    2.9410   -8.8418    0.0000 C   0  0  0  0  0  0  0  0  0  0  0  0
    3.2014  -10.3190    0.0000 O   0  0  0  0  0  0  0  0  0  0  0  0
    4.6110  -10.8320    0.0000 C   0  0  0  0  0  0  0  0  0  0  0  0
    4.8714  -12.3092    0.0000 C   0  0  0  0  0  0  0  0  0  0  0  0
    5.8356  -13.4583    0.0000 C   0  0  0  0  0  0  0  0  0  0  0  0
    4.3584  -13.7188    0.0000 O   0  0  0  0  0  0  0  0  0  0  0  0
  1  2  1  0
  2  3  1  0
  3  4  2  0
  4  5  1  0
  5  6  1  0
  6  7  1  0
  7  8  2  0
  8  9  1  0
  9 10  1  0
 10 11  1  0
  9 12  2  0
 12 13  1  0
 13 14  1  0
 14 15  1  0
 15 16  1  0
 16 17  1  0
 12 18  1  0
 18 19  1  0
 19 20  1  0
 20 21  1  0
 19 22  1  0
 22 23  1  0
 19 24  1  0
 24 25  1  0
 18 26  2  0
  6 27  1  0
 27 28  2  0
 27 29  1  0
 29 30  1  0
 30 31  2  0
 31 32  1  0
 32 33  2  0
 33 34  1  0
 34 35  2  0
 35 36  1  0
 36 37  2  0
 37 38  1  0
 38 39  2  0
 39 40  1  0
 40 41  2  0
  5 42  2  0
 42 43  1  0
 43 44  2  0
 44 45  1  0
 45 46  1  0
 46 47  1  0
 47 48  1  0
 48 49  1  0
 44  3  1  0
 49 47  1  0
 26  7  1  0
 41 27  1  0
 17 15  1  0
 35 30  1  0
 41 36  1  0
M  END
>  <Candidate_ID>  (289) 
CAND_R2_289

>  <Candidate_Name>  (289) 
DGEBDB-trimethoxysilyl

>  <Parent_Seed_ID>  (289) 
TRAIN_004

>  <Parent_Name>  (289) 
DGEBDB

>  <Transformation_Code>  (289) 
trimethoxysilyl

>  <Design_Family>  (289) 
P-Si

>  <Preparation_Type>  (289) 
Additive + Secondary Crosslinking

>  <Synthesis_Level>  (289) 
B

>  <Parent_Tanimoto_r3>  (289) 
0.7604166666666666

>  <Max_Train_Tanimoto_r3>  (289) 
0.7604166666666666

>  <Risk_Flags>  (289) 
none

$$$$
CAND_R2_290 | DGEBDB-triethoxysilyl
     RDKit          2D

 52 58  0  0  0  0  0  0  0  0999 V2000
   11.2449   -3.5697    0.0000 C   0  0  0  0  0  0  0  0  0  0  0  0
    9.8354   -3.0567    0.0000 C   0  0  0  0  0  0  0  0  0  0  0  0
    8.6863   -4.0209    0.0000 O   0  0  0  0  0  0  0  0  0  0  0  0
    7.2768   -3.5078    0.0000 Si  0  0  0  0  0  4  0  0  0  0  0  0
    6.7637   -4.9174    0.0000 O   0  0  0  0  0  0  0  0  0  0  0  0
    7.7279   -6.0664    0.0000 C   0  0  0  0  0  0  0  0  0  0  0  0
    7.2149   -7.4760    0.0000 C   0  0  0  0  0  0  0  0  0  0  0  0
    7.7898   -2.0983    0.0000 O   0  0  0  0  0  0  0  0  0  0  0  0
    9.2670   -1.8378    0.0000 C   0  0  0  0  0  0  0  0  0  0  0  0
    9.7800   -0.4283    0.0000 C   0  0  0  0  0  0  0  0  0  0  0  0
    5.8672   -2.9948    0.0000 C   0  0  0  0  0  0  0  0  0  0  0  0
    4.7181   -3.9590    0.0000 C   0  0  0  0  0  0  0  0  0  0  0  0
    3.3086   -3.4460    0.0000 C   0  0  0  0  0  0  0  0  0  0  0  0
    2.1595   -4.4101    0.0000 C   0  0  0  0  0  0  0  0  0  0  0  0
    2.4200   -5.8874    0.0000 C   0  0  0  0  0  0  0  0  0  0  0  0
    1.2709   -6.8515    0.0000 C   0  0  0  0  0  0  0  0  0  0  0  0
    1.5314   -8.3287    0.0000 C   0  0  0  0  0  0  0  0  0  0  0  0
    2.9410   -8.8418    0.0000 C   0  0  0  0  0  0  0  0  0  0  0  0
    3.2014  -10.3190    0.0000 O   0  0  0  0  0  0  0  0  0  0  0  0
    2.0524  -11.2832    0.0000 C   0  0  0  0  0  0  0  0  0  0  0  0
    2.3128  -12.7604    0.0000 C   0  0  0  0  0  0  0  0  0  0  0  0
    3.2770  -13.9095    0.0000 C   0  0  0  0  0  0  0  0  0  0  0  0
    1.7998  -14.1699    0.0000 O   0  0  0  0  0  0  0  0  0  0  0  0
    4.0900   -7.8776    0.0000 C   0  0  0  0  0  0  0  0  0  0  0  0
    5.4996   -8.3906    0.0000 O   0  0  0  0  0  0  0  0  0  0  0  0
    5.7600   -9.8678    0.0000 C   0  0  0  0  0  0  0  0  0  0  0  0
    3.8296   -6.4004    0.0000 C   0  0  0  0  0  0  0  0  0  0  0  0
    0.7500   -3.8971    0.0000 P   0  0  0  0  0  0  0  0  0  0  0  0
    0.4895   -5.3743    0.0000 O   0  0  0  0  0  0  0  0  0  0  0  0
    1.5000   -2.5981    0.0000 O   0  0  0  0  0  0  0  0  0  0  0  0
    0.7500   -1.2990    0.0000 C   0  0  0  0  0  0  0  0  0  0  0  0
    1.5000    0.0000    0.0000 C   0  0  0  0  0  0  0  0  0  0  0  0
    0.7500    1.2990    0.0000 C   0  0  0  0  0  0  0  0  0  0  0  0
   -0.7500    1.2990    0.0000 C   0  0  0  0  0  0  0  0  0  0  0  0
   -1.5000    0.0000    0.0000 C   0  0  0  0  0  0  0  0  0  0  0  0
   -0.7500   -1.2990    0.0000 C   0  0  0  0  0  0  0  0  0  0  0  0
   -1.5000   -2.5981    0.0000 C   0  0  0  0  0  0  0  0  0  0  0  0
   -3.0000   -2.5981    0.0000 C   0  0  0  0  0  0  0  0  0  0  0  0
   -3.7500   -3.8971    0.0000 C   0  0  0  0  0  0  0  0  0  0  0  0
   -3.0000   -5.1962    0.0000 C   0  0  0  0  0  0  0  0  0  0  0  0
   -1.5000   -5.1962    0.0000 C   0  0  0  0  0  0  0  0  0  0  0  0
   -0.7500   -3.8971    0.0000 C   0  0  0  0  0  0  0  0  0  0  0  0
    3.0481   -1.9688    0.0000 C   0  0  0  0  0  0  0  0  0  0  0  0
    4.1972   -1.0046    0.0000 C   0  0  0  0  0  0  0  0  0  0  0  0
    3.9367    0.4726    0.0000 O   0  0  0  0  0  0  0  0  0  0  0  0
    5.0858    1.4368    0.0000 C   0  0  0  0  0  0  0  0  0  0  0  0
    5.6067   -1.5176    0.0000 C   0  0  0  0  0  0  0  0  0  0  0  0
    6.7558   -0.5534    0.0000 O   0  0  0  0  0  0  0  0  0  0  0  0
    6.4953    0.9238    0.0000 C   0  0  0  0  0  0  0  0  0  0  0  0
    7.6444    1.8880    0.0000 C   0  0  0  0  0  0  0  0  0  0  0  0
    9.1216    2.1484    0.0000 C   0  0  0  0  0  0  0  0  0  0  0  0
    8.1574    3.2975    0.0000 O   0  0  0  0  0  0  0  0  0  0  0  0
  1  2  1  0
  2  3  1  0
  3  4  1  0
  4  5  1  0
  5  6  1  0
  6  7  1  0
  4  8  1  0
  8  9  1  0
  9 10  1  0
  4 11  1  0
 11 12  2  0
 12 13  1  0
 13 14  1  0
 14 15  1  0
 15 16  2  0
 16 17  1  0
 17 18  2  0
 18 19  1  0
 19 20  1  0
 20 21  1  0
 21 22  1  0
 22 23  1  0
 18 24  1  0
 24 25  1  0
 25 26  1  0
 24 27  2  0
 14 28  1  0
 28 29  2  0
 28 30  1  0
 30 31  1  0
 31 32  2  0
 32 33  1  0
 33 34  2  0
 34 35  1  0
 35 36  2  0
 36 37  1  0
 37 38  2  0
 38 39  1  0
 39 40  2  0
 40 41  1  0
 41 42  2  0
 13 43  2  0
 43 44  1  0
 44 45  1  0
 45 46  1  0
 44 47  2  0
 47 48  1  0
 48 49  1  0
 49 50  1  0
 50 51  1  0
 51 52  1  0
 47 11  1  0
 52 50  1  0
 27 15  1  0
 42 28  1  0
 23 21  1  0
 36 31  1  0
 42 37  1  0
M  END
>  <Candidate_ID>  (290) 
CAND_R2_290

>  <Candidate_Name>  (290) 
DGEBDB-triethoxysilyl

>  <Parent_Seed_ID>  (290) 
TRAIN_004

>  <Parent_Name>  (290) 
DGEBDB

>  <Transformation_Code>  (290) 
triethoxysilyl

>  <Design_Family>  (290) 
P-Si

>  <Preparation_Type>  (290) 
Additive + Secondary Crosslinking

>  <Synthesis_Level>  (290) 
B

>  <Parent_Tanimoto_r3>  (290) 
0.7227722772277227

>  <Max_Train_Tanimoto_r3>  (290) 
0.7227722772277227

>  <Risk_Flags>  (290) 
none

$$$$
CAND_R2_291 | DGEBDB-disiloxane
     RDKit          2D

 50 56  0  0  0  0  0  0  0  0999 V2000
   -1.0272   -8.7799    0.0000 C   0  0  0  0  0  0  0  0  0  0  0  0
    0.3824   -9.2929    0.0000 O   0  0  0  0  0  0  0  0  0  0  0  0
    1.5314   -8.3287    0.0000 C   0  0  0  0  0  0  0  0  0  0  0  0
    1.2709   -6.8515    0.0000 C   0  0  0  0  0  0  0  0  0  0  0  0
    2.4200   -5.8874    0.0000 C   0  0  0  0  0  0  0  0  0  0  0  0
    2.1595   -4.4101    0.0000 C   0  0  0  0  0  0  0  0  0  0  0  0
    3.3086   -3.4460    0.0000 C   0  0  0  0  0  0  0  0  0  0  0  0
    4.7181   -3.9590    0.0000 C   0  0  0  0  0  0  0  0  0  0  0  0
    5.8672   -2.9948    0.0000 C   0  0  0  0  0  0  0  0  0  0  0  0
    7.2768   -3.5078    0.0000 O   0  0  0  0  0  0  0  0  0  0  0  0
    7.5372   -4.9851    0.0000 C   0  0  0  0  0  0  0  0  0  0  0  0
    5.6067   -1.5176    0.0000 C   0  0  0  0  0  0  0  0  0  0  0  0
    6.7558   -0.5534    0.0000 O   0  0  0  0  0  0  0  0  0  0  0  0
    6.4953    0.9238    0.0000 C   0  0  0  0  0  0  0  0  0  0  0  0
    7.6444    1.8880    0.0000 C   0  0  0  0  0  0  0  0  0  0  0  0
    8.1574    3.2975    0.0000 C   0  0  0  0  0  0  0  0  0  0  0  0
    9.1216    2.1484    0.0000 O   0  0  0  0  0  0  0  0  0  0  0  0
    4.1972   -1.0046    0.0000 C   0  0  0  0  0  0  0  0  0  0  0  0
    3.9367    0.4726    0.0000 Si  0  0  0  0  0  4  0  0  0  0  0  0
    2.4595    0.2122    0.0000 C   0  0  0  0  0  0  0  0  0  0  0  0
    5.4139    0.7331    0.0000 C   0  0  0  0  0  0  0  0  0  0  0  0
    3.6763    1.9499    0.0000 O   0  0  0  0  0  0  0  0  0  0  0  0
    4.8253    2.9140    0.0000 Si  0  0  0  0  0  4  0  0  0  0  0  0
    3.8611    4.0631    0.0000 C   0  0  0  0  0  0  0  0  0  0  0  0
    5.7895    1.7650    0.0000 C   0  0  0  0  0  0  0  0  0  0  0  0
    5.9744    3.8782    0.0000 C   0  0  0  0  0  0  0  0  0  0  0  0
    3.0481   -1.9688    0.0000 C   0  0  0  0  0  0  0  0  0  0  0  0
    0.7500   -3.8971    0.0000 P   0  0  0  0  0  0  0  0  0  0  0  0
    0.4895   -5.3743    0.0000 O   0  0  0  0  0  0  0  0  0  0  0  0
    1.5000   -2.5981    0.0000 O   0  0  0  0  0  0  0  0  0  0  0  0
    0.7500   -1.2990    0.0000 C   0  0  0  0  0  0  0  0  0  0  0  0
    1.5000    0.0000    0.0000 C   0  0  0  0  0  0  0  0  0  0  0  0
    0.7500    1.2990    0.0000 C   0  0  0  0  0  0  0  0  0  0  0  0
   -0.7500    1.2990    0.0000 C   0  0  0  0  0  0  0  0  0  0  0  0
   -1.5000    0.0000    0.0000 C   0  0  0  0  0  0  0  0  0  0  0  0
   -0.7500   -1.2990    0.0000 C   0  0  0  0  0  0  0  0  0  0  0  0
   -1.5000   -2.5981    0.0000 C   0  0  0  0  0  0  0  0  0  0  0  0
   -3.0000   -2.5981    0.0000 C   0  0  0  0  0  0  0  0  0  0  0  0
   -3.7500   -3.8971    0.0000 C   0  0  0  0  0  0  0  0  0  0  0  0
   -3.0000   -5.1962    0.0000 C   0  0  0  0  0  0  0  0  0  0  0  0
   -1.5000   -5.1962    0.0000 C   0  0  0  0  0  0  0  0  0  0  0  0
   -0.7500   -3.8971    0.0000 C   0  0  0  0  0  0  0  0  0  0  0  0
    3.8296   -6.4004    0.0000 C   0  0  0  0  0  0  0  0  0  0  0  0
    4.0900   -7.8776    0.0000 C   0  0  0  0  0  0  0  0  0  0  0  0
    2.9410   -8.8418    0.0000 C   0  0  0  0  0  0  0  0  0  0  0  0
    3.2014  -10.3190    0.0000 O   0  0  0  0  0  0  0  0  0  0  0  0
    4.6110  -10.8320    0.0000 C   0  0  0  0  0  0  0  0  0  0  0  0
    4.8714  -12.3092    0.0000 C   0  0  0  0  0  0  0  0  0  0  0  0
    5.8356  -13.4583    0.0000 C   0  0  0  0  0  0  0  0  0  0  0  0
    4.3584  -13.7188    0.0000 O   0  0  0  0  0  0  0  0  0  0  0  0
  1  2  1  0
  2  3  1  0
  3  4  2  0
  4  5  1  0
  5  6  1  0
  6  7  1  0
  7  8  2  0
  8  9  1  0
  9 10  1  0
 10 11  1  0
  9 12  2  0
 12 13  1  0
 13 14  1  0
 14 15  1  0
 15 16  1  0
 16 17  1  0
 12 18  1  0
 18 19  1  0
 19 20  1  0
 19 21  1  0
 19 22  1  0
 22 23  1  0
 23 24  1  0
 23 25  1  0
 23 26  1  0
 18 27  2  0
  6 28  1  0
 28 29  2  0
 28 30  1  0
 30 31  1  0
 31 32  2  0
 32 33  1  0
 33 34  2  0
 34 35  1  0
 35 36  2  0
 36 37  1  0
 37 38  2  0
 38 39  1  0
 39 40  2  0
 40 41  1  0
 41 42  2  0
  5 43  2  0
 43 44  1  0
 44 45  2  0
 45 46  1  0
 46 47  1  0
 47 48  1  0
 48 49  1  0
 49 50  1  0
 45  3  1  0
 50 48  1  0
 27  7  1  0
 42 28  1  0
 17 15  1  0
 36 31  1  0
 42 37  1  0
M  END
>  <Candidate_ID>  (291) 
CAND_R2_291

>  <Candidate_Name>  (291) 
DGEBDB-disiloxane

>  <Parent_Seed_ID>  (291) 
TRAIN_004

>  <Parent_Name>  (291) 
DGEBDB

>  <Transformation_Code>  (291) 
disiloxane

>  <Design_Family>  (291) 
P-Si

>  <Preparation_Type>  (291) 
Additive

>  <Synthesis_Level>  (291) 
B

>  <Parent_Tanimoto_r3>  (291) 
0.73

>  <Max_Train_Tanimoto_r3>  (291) 
0.73

>  <Risk_Flags>  (291) 
none

$$$$
CAND_R2_292 | DGEBDB-glycidyloxy
     RDKit          2D

 47 54  0  0  0  0  0  0  0  0999 V2000
   -1.0272   -8.7799    0.0000 C   0  0  0  0  0  0  0  0  0  0  0  0
    0.3824   -9.2929    0.0000 O   0  0  0  0  0  0  0  0  0  0  0  0
    1.5314   -8.3287    0.0000 C   0  0  0  0  0  0  0  0  0  0  0  0
    1.2709   -6.8515    0.0000 C   0  0  0  0  0  0  0  0  0  0  0  0
    2.4200   -5.8874    0.0000 C   0  0  0  0  0  0  0  0  0  0  0  0
    2.1595   -4.4101    0.0000 C   0  0  0  0  0  0  0  0  0  0  0  0
    3.3086   -3.4460    0.0000 C   0  0  0  0  0  0  0  0  0  0  0  0
    4.7181   -3.9590    0.0000 C   0  0  0  0  0  0  0  0  0  0  0  0
    5.8672   -2.9948    0.0000 C   0  0  0  0  0  0  0  0  0  0  0  0
    7.2768   -3.5078    0.0000 O   0  0  0  0  0  0  0  0  0  0  0  0
    7.5372   -4.9851    0.0000 C   0  0  0  0  0  0  0  0  0  0  0  0
    5.6067   -1.5176    0.0000 C   0  0  0  0  0  0  0  0  0  0  0  0
    6.7558   -0.5534    0.0000 O   0  0  0  0  0  0  0  0  0  0  0  0
    6.4953    0.9238    0.0000 C   0  0  0  0  0  0  0  0  0  0  0  0
    7.6444    1.8880    0.0000 C   0  0  0  0  0  0  0  0  0  0  0  0
    8.1574    3.2975    0.0000 C   0  0  0  0  0  0  0  0  0  0  0  0
    9.1216    2.1484    0.0000 O   0  0  0  0  0  0  0  0  0  0  0  0
    4.1972   -1.0046    0.0000 C   0  0  0  0  0  0  0  0  0  0  0  0
    3.9367    0.4726    0.0000 O   0  0  0  0  0  0  0  0  0  0  0  0
    5.0858    1.4368    0.0000 C   0  0  0  0  0  0  0  0  0  0  0  0
    4.8253    2.9140    0.0000 C   0  0  0  0  0  0  0  0  0  0  0  0
    3.8611    4.0631    0.0000 C   0  0  0  0  0  0  0  0  0  0  0  0
    5.3384    4.3236    0.0000 O   0  0  0  0  0  0  0  0  0  0  0  0
    3.0481   -1.9688    0.0000 C   0  0  0  0  0  0  0  0  0  0  0  0
    0.7500   -3.8971    0.0000 P   0  0  0  0  0  0  0  0  0  0  0  0
    0.4895   -5.3743    0.0000 O   0  0  0  0  0  0  0  0  0  0  0  0
    1.5000   -2.5981    0.0000 O   0  0  0  0  0  0  0  0  0  0  0  0
    0.7500   -1.2990    0.0000 C   0  0  0  0  0  0  0  0  0  0  0  0
    1.5000    0.0000    0.0000 C   0  0  0  0  0  0  0  0  0  0  0  0
    0.7500    1.2990    0.0000 C   0  0  0  0  0  0  0  0  0  0  0  0
   -0.7500    1.2990    0.0000 C   0  0  0  0  0  0  0  0  0  0  0  0
   -1.5000    0.0000    0.0000 C   0  0  0  0  0  0  0  0  0  0  0  0
   -0.7500   -1.2990    0.0000 C   0  0  0  0  0  0  0  0  0  0  0  0
   -1.5000   -2.5981    0.0000 C   0  0  0  0  0  0  0  0  0  0  0  0
   -3.0000   -2.5981    0.0000 C   0  0  0  0  0  0  0  0  0  0  0  0
   -3.7500   -3.8971    0.0000 C   0  0  0  0  0  0  0  0  0  0  0  0
   -3.0000   -5.1962    0.0000 C   0  0  0  0  0  0  0  0  0  0  0  0
   -1.5000   -5.1962    0.0000 C   0  0  0  0  0  0  0  0  0  0  0  0
   -0.7500   -3.8971    0.0000 C   0  0  0  0  0  0  0  0  0  0  0  0
    3.8296   -6.4004    0.0000 C   0  0  0  0  0  0  0  0  0  0  0  0
    4.0900   -7.8776    0.0000 C   0  0  0  0  0  0  0  0  0  0  0  0
    2.9410   -8.8418    0.0000 C   0  0  0  0  0  0  0  0  0  0  0  0
    3.2014  -10.3190    0.0000 O   0  0  0  0  0  0  0  0  0  0  0  0
    4.6110  -10.8320    0.0000 C   0  0  0  0  0  0  0  0  0  0  0  0
    4.8714  -12.3092    0.0000 C   0  0  0  0  0  0  0  0  0  0  0  0
    5.8356  -13.4583    0.0000 C   0  0  0  0  0  0  0  0  0  0  0  0
    4.3584  -13.7188    0.0000 O   0  0  0  0  0  0  0  0  0  0  0  0
  1  2  1  0
  2  3  1  0
  3  4  2  0
  4  5  1  0
  5  6  1  0
  6  7  1  0
  7  8  2  0
  8  9  1  0
  9 10  1  0
 10 11  1  0
  9 12  2  0
 12 13  1  0
 13 14  1  0
 14 15  1  0
 15 16  1  0
 16 17  1  0
 12 18  1  0
 18 19  1  0
 19 20  1  0
 20 21  1  0
 21 22  1  0
 22 23  1  0
 18 24  2  0
  6 25  1  0
 25 26  2  0
 25 27  1  0
 27 28  1  0
 28 29  2  0
 29 30  1  0
 30 31  2  0
 31 32  1  0
 32 33  2  0
 33 34  1  0
 34 35  2  0
 35 36  1  0
 36 37  2  0
 37 38  1  0
 38 39  2  0
  5 40  2  0
 40 41  1  0
 41 42  2  0
 42 43  1  0
 43 44  1  0
 44 45  1  0
 45 46  1  0
 46 47  1  0
 42  3  1  0
 47 45  1  0
 24  7  1  0
 39 25  1  0
 17 15  1  0
 23 21  1  0
 33 28  1  0
 39 34  1  0
M  END
>  <Candidate_ID>  (292) 
CAND_R2_292

>  <Candidate_Name>  (292) 
DGEBDB-glycidyloxy

>  <Parent_Seed_ID>  (292) 
TRAIN_004

>  <Parent_Name>  (292) 
DGEBDB

>  <Transformation_Code>  (292) 
glycidyloxy

>  <Design_Family>  (292) 
P-only

>  <Preparation_Type>  (292) 
Co-curing

>  <Synthesis_Level>  (292) 
B

>  <Parent_Tanimoto_r3>  (292) 
0.8111111111111111

>  <Max_Train_Tanimoto_r3>  (292) 
0.8111111111111111

>  <Risk_Flags>  (292) 
none

$$$$
CAND_R2_293 | DGEBDB-diaminotriazine
     RDKit          2D

 50 57  0  0  0  0  0  0  0  0999 V2000
   -1.0272   -8.7799    0.0000 C   0  0  0  0  0  0  0  0  0  0  0  0
    0.3824   -9.2929    0.0000 O   0  0  0  0  0  0  0  0  0  0  0  0
    1.5314   -8.3287    0.0000 C   0  0  0  0  0  0  0  0  0  0  0  0
    1.2709   -6.8515    0.0000 C   0  0  0  0  0  0  0  0  0  0  0  0
    2.4200   -5.8874    0.0000 C   0  0  0  0  0  0  0  0  0  0  0  0
    2.1595   -4.4101    0.0000 C   0  0  0  0  0  0  0  0  0  0  0  0
    3.3086   -3.4460    0.0000 C   0  0  0  0  0  0  0  0  0  0  0  0
    4.7181   -3.9590    0.0000 C   0  0  0  0  0  0  0  0  0  0  0  0
    5.8672   -2.9948    0.0000 C   0  0  0  0  0  0  0  0  0  0  0  0
    7.2768   -3.5078    0.0000 O   0  0  0  0  0  0  0  0  0  0  0  0
    7.5372   -4.9851    0.0000 C   0  0  0  0  0  0  0  0  0  0  0  0
    5.6067   -1.5176    0.0000 C   0  0  0  0  0  0  0  0  0  0  0  0
    6.7558   -0.5534    0.0000 O   0  0  0  0  0  0  0  0  0  0  0  0
    6.4953    0.9238    0.0000 C   0  0  0  0  0  0  0  0  0  0  0  0
    7.6444    1.8880    0.0000 C   0  0  0  0  0  0  0  0  0  0  0  0
    8.1574    3.2975    0.0000 C   0  0  0  0  0  0  0  0  0  0  0  0
    9.1216    2.1484    0.0000 O   0  0  0  0  0  0  0  0  0  0  0  0
    4.1972   -1.0046    0.0000 C   0  0  0  0  0  0  0  0  0  0  0  0
    3.9367    0.4726    0.0000 C   0  0  0  0  0  0  0  0  0  0  0  0
    5.0858    1.4368    0.0000 N   0  0  0  0  0  0  0  0  0  0  0  0
    4.8253    2.9140    0.0000 C   0  0  0  0  0  0  0  0  0  0  0  0
    5.9744    3.8782    0.0000 N   0  0  0  0  0  0  0  0  0  0  0  0
    3.4158    3.4271    0.0000 N   0  0  0  0  0  0  0  0  0  0  0  0
    2.2667    2.4629    0.0000 C   0  0  0  0  0  0  0  0  0  0  0  0
    0.8572    2.9759    0.0000 N   0  0  0  0  0  0  0  0  0  0  0  0
    2.5272    0.9857    0.0000 N   0  0  0  0  0  0  0  0  0  0  0  0
    3.0481   -1.9688    0.0000 C   0  0  0  0  0  0  0  0  0  0  0  0
    0.7500   -3.8971    0.0000 P   0  0  0  0  0  0  0  0  0  0  0  0
    0.4895   -5.3743    0.0000 O   0  0  0  0  0  0  0  0  0  0  0  0
    1.5000   -2.5981    0.0000 O   0  0  0  0  0  0  0  0  0  0  0  0
    0.7500   -1.2990    0.0000 C   0  0  0  0  0  0  0  0  0  0  0  0
    1.5000    0.0000    0.0000 C   0  0  0  0  0  0  0  0  0  0  0  0
    0.7500    1.2990    0.0000 C   0  0  0  0  0  0  0  0  0  0  0  0
   -0.7500    1.2990    0.0000 C   0  0  0  0  0  0  0  0  0  0  0  0
   -1.5000    0.0000    0.0000 C   0  0  0  0  0  0  0  0  0  0  0  0
   -0.7500   -1.2990    0.0000 C   0  0  0  0  0  0  0  0  0  0  0  0
   -1.5000   -2.5981    0.0000 C   0  0  0  0  0  0  0  0  0  0  0  0
   -3.0000   -2.5981    0.0000 C   0  0  0  0  0  0  0  0  0  0  0  0
   -3.7500   -3.8971    0.0000 C   0  0  0  0  0  0  0  0  0  0  0  0
   -3.0000   -5.1962    0.0000 C   0  0  0  0  0  0  0  0  0  0  0  0
   -1.5000   -5.1962    0.0000 C   0  0  0  0  0  0  0  0  0  0  0  0
   -0.7500   -3.8971    0.0000 C   0  0  0  0  0  0  0  0  0  0  0  0
    3.8296   -6.4004    0.0000 C   0  0  0  0  0  0  0  0  0  0  0  0
    4.0900   -7.8776    0.0000 C   0  0  0  0  0  0  0  0  0  0  0  0
    2.9410   -8.8418    0.0000 C   0  0  0  0  0  0  0  0  0  0  0  0
    3.2014  -10.3190    0.0000 O   0  0  0  0  0  0  0  0  0  0  0  0
    4.6110  -10.8320    0.0000 C   0  0  0  0  0  0  0  0  0  0  0  0
    4.8714  -12.3092    0.0000 C   0  0  0  0  0  0  0  0  0  0  0  0
    5.8356  -13.4583    0.0000 C   0  0  0  0  0  0  0  0  0  0  0  0
    4.3584  -13.7188    0.0000 O   0  0  0  0  0  0  0  0  0  0  0  0
  1  2  1  0
  2  3  1  0
  3  4  2  0
  4  5  1  0
  5  6  1  0
  6  7  1  0
  7  8  2  0
  8  9  1  0
  9 10  1  0
 10 11  1  0
  9 12  2  0
 12 13  1  0
 13 14  1  0
 14 15  1  0
 15 16  1  0
 16 17  1  0
 12 18  1  0
 18 19  1  0
 19 20  2  0
 20 21  1  0
 21 22  1  0
 21 23  2  0
 23 24  1  0
 24 25  1  0
 24 26  2  0
 18 27  2  0
  6 28  1  0
 28 29  2  0
 28 30  1  0
 30 31  1  0
 31 32  2  0
 32 33  1  0
 33 34  2  0
 34 35  1  0
 35 36  2  0
 36 37  1  0
 37 38  2  0
 38 39  1  0
 39 40  2  0
 40 41  1  0
 41 42  2  0
  5 43  2  0
 43 44  1  0
 44 45  2  0
 45 46  1  0
 46 47  1  0
 47 48  1  0
 48 49  1  0
 49 50  1  0
 45  3  1  0
 50 48  1  0
 27  7  1  0
 42 28  1  0
 17 15  1  0
 26 19  1  0
 36 31  1  0
 42 37  1  0
M  END
>  <Candidate_ID>  (293) 
CAND_R2_293

>  <Candidate_Name>  (293) 
DGEBDB-diaminotriazine

>  <Parent_Seed_ID>  (293) 
TRAIN_004

>  <Parent_Name>  (293) 
DGEBDB

>  <Transformation_Code>  (293) 
diaminotriazine

>  <Design_Family>  (293) 
P-N

>  <Preparation_Type>  (293) 
Co-curing

>  <Synthesis_Level>  (293) 
B

>  <Parent_Tanimoto_r3>  (293) 
0.7019230769230769

>  <Max_Train_Tanimoto_r3>  (293) 
0.7019230769230769

>  <Risk_Flags>  (293) 
none

$$$$
CAND_R2_294 | DGEBDB-piperazine
     RDKit          2D

 48 55  0  0  0  0  0  0  0  0999 V2000
   -1.0272   -8.7799    0.0000 C   0  0  0  0  0  0  0  0  0  0  0  0
    0.3824   -9.2929    0.0000 O   0  0  0  0  0  0  0  0  0  0  0  0
    1.5314   -8.3287    0.0000 C   0  0  0  0  0  0  0  0  0  0  0  0
    1.2709   -6.8515    0.0000 C   0  0  0  0  0  0  0  0  0  0  0  0
    2.4200   -5.8874    0.0000 C   0  0  0  0  0  0  0  0  0  0  0  0
    2.1595   -4.4101    0.0000 C   0  0  0  0  0  0  0  0  0  0  0  0
    3.3086   -3.4460    0.0000 C   0  0  0  0  0  0  0  0  0  0  0  0
    4.7181   -3.9590    0.0000 C   0  0  0  0  0  0  0  0  0  0  0  0
    5.8672   -2.9948    0.0000 C   0  0  0  0  0  0  0  0  0  0  0  0
    7.2768   -3.5078    0.0000 O   0  0  0  0  0  0  0  0  0  0  0  0
    7.5372   -4.9851    0.0000 C   0  0  0  0  0  0  0  0  0  0  0  0
    5.6067   -1.5176    0.0000 C   0  0  0  0  0  0  0  0  0  0  0  0
    6.7558   -0.5534    0.0000 O   0  0  0  0  0  0  0  0  0  0  0  0
    6.4953    0.9238    0.0000 C   0  0  0  0  0  0  0  0  0  0  0  0
    7.6444    1.8880    0.0000 C   0  0  0  0  0  0  0  0  0  0  0  0
    8.1574    3.2975    0.0000 C   0  0  0  0  0  0  0  0  0  0  0  0
    9.1216    2.1484    0.0000 O   0  0  0  0  0  0  0  0  0  0  0  0
    4.1972   -1.0046    0.0000 C   0  0  0  0  0  0  0  0  0  0  0  0
    3.9367    0.4726    0.0000 N   0  0  0  0  0  0  0  0  0  0  0  0
    5.0858    1.4368    0.0000 C   0  0  0  0  0  0  0  0  0  0  0  0
    4.8253    2.9140    0.0000 C   0  0  0  0  0  0  0  0  0  0  0  0
    3.4158    3.4271    0.0000 N   0  0  0  0  0  0  0  0  0  0  0  0
    2.2667    2.4629    0.0000 C   0  0  0  0  0  0  0  0  0  0  0  0
    2.5272    0.9857    0.0000 C   0  0  0  0  0  0  0  0  0  0  0  0
    3.0481   -1.9688    0.0000 C   0  0  0  0  0  0  0  0  0  0  0  0
    0.7500   -3.8971    0.0000 P   0  0  0  0  0  0  0  0  0  0  0  0
    0.4895   -5.3743    0.0000 O   0  0  0  0  0  0  0  0  0  0  0  0
    1.5000   -2.5981    0.0000 O   0  0  0  0  0  0  0  0  0  0  0  0
    0.7500   -1.2990    0.0000 C   0  0  0  0  0  0  0  0  0  0  0  0
    1.5000    0.0000    0.0000 C   0  0  0  0  0  0  0  0  0  0  0  0
    0.7500    1.2990    0.0000 C   0  0  0  0  0  0  0  0  0  0  0  0
   -0.7500    1.2990    0.0000 C   0  0  0  0  0  0  0  0  0  0  0  0
   -1.5000    0.0000    0.0000 C   0  0  0  0  0  0  0  0  0  0  0  0
   -0.7500   -1.2990    0.0000 C   0  0  0  0  0  0  0  0  0  0  0  0
   -1.5000   -2.5981    0.0000 C   0  0  0  0  0  0  0  0  0  0  0  0
   -3.0000   -2.5981    0.0000 C   0  0  0  0  0  0  0  0  0  0  0  0
   -3.7500   -3.8971    0.0000 C   0  0  0  0  0  0  0  0  0  0  0  0
   -3.0000   -5.1962    0.0000 C   0  0  0  0  0  0  0  0  0  0  0  0
   -1.5000   -5.1962    0.0000 C   0  0  0  0  0  0  0  0  0  0  0  0
   -0.7500   -3.8971    0.0000 C   0  0  0  0  0  0  0  0  0  0  0  0
    3.8296   -6.4004    0.0000 C   0  0  0  0  0  0  0  0  0  0  0  0
    4.0900   -7.8776    0.0000 C   0  0  0  0  0  0  0  0  0  0  0  0
    2.9410   -8.8418    0.0000 C   0  0  0  0  0  0  0  0  0  0  0  0
    3.2014  -10.3190    0.0000 O   0  0  0  0  0  0  0  0  0  0  0  0
    4.6110  -10.8320    0.0000 C   0  0  0  0  0  0  0  0  0  0  0  0
    4.8714  -12.3092    0.0000 C   0  0  0  0  0  0  0  0  0  0  0  0
    5.8356  -13.4583    0.0000 C   0  0  0  0  0  0  0  0  0  0  0  0
    4.3584  -13.7188    0.0000 O   0  0  0  0  0  0  0  0  0  0  0  0
  1  2  1  0
  2  3  1  0
  3  4  2  0
  4  5  1  0
  5  6  1  0
  6  7  1  0
  7  8  2  0
  8  9  1  0
  9 10  1  0
 10 11  1  0
  9 12  2  0
 12 13  1  0
 13 14  1  0
 14 15  1  0
 15 16  1  0
 16 17  1  0
 12 18  1  0
 18 19  1  0
 19 20  1  0
 20 21  1  0
 21 22  1  0
 22 23  1  0
 23 24  1  0
 18 25  2  0
  6 26  1  0
 26 27  2  0
 26 28  1  0
 28 29  1  0
 29 30  2  0
 30 31  1  0
 31 32  2  0
 32 33  1  0
 33 34  2  0
 34 35  1  0
 35 36  2  0
 36 37  1  0
 37 38  2  0
 38 39  1  0
 39 40  2  0
  5 41  2  0
 41 42  1  0
 42 43  2  0
 43 44  1  0
 44 45  1  0
 45 46  1  0
 46 47  1  0
 47 48  1  0
 43  3  1  0
 48 46  1  0
 25  7  1  0
 40 26  1  0
 17 15  1  0
 24 19  1  0
 34 29  1  0
 40 35  1  0
M  END
>  <Candidate_ID>  (294) 
CAND_R2_294

>  <Candidate_Name>  (294) 
DGEBDB-piperazine

>  <Parent_Seed_ID>  (294) 
TRAIN_004

>  <Parent_Name>  (294) 
DGEBDB

>  <Transformation_Code>  (294) 
piperazine

>  <Design_Family>  (294) 
P-N

>  <Preparation_Type>  (294) 
Co-curing

>  <Synthesis_Level>  (294) 
B

>  <Parent_Tanimoto_r3>  (294) 
0.7019230769230769

>  <Max_Train_Tanimoto_r3>  (294) 
0.7019230769230769

>  <Risk_Flags>  (294) 
none

$$$$
CAND_R2_295 | DGEBDB-benzamide-linker
     RDKit          2D

 51 58  0  0  0  0  0  0  0  0999 V2000
   -1.0272   -8.7799    0.0000 C   0  0  0  0  0  0  0  0  0  0  0  0
    0.3824   -9.2929    0.0000 O   0  0  0  0  0  0  0  0  0  0  0  0
    1.5314   -8.3287    0.0000 C   0  0  0  0  0  0  0  0  0  0  0  0
    1.2709   -6.8515    0.0000 C   0  0  0  0  0  0  0  0  0  0  0  0
    2.4200   -5.8874    0.0000 C   0  0  0  0  0  0  0  0  0  0  0  0
    2.1595   -4.4101    0.0000 C   0  0  0  0  0  0  0  0  0  0  0  0
    3.3086   -3.4460    0.0000 C   0  0  0  0  0  0  0  0  0  0  0  0
    4.7181   -3.9590    0.0000 C   0  0  0  0  0  0  0  0  0  0  0  0
    5.8672   -2.9948    0.0000 C   0  0  0  0  0  0  0  0  0  0  0  0
    7.2768   -3.5078    0.0000 N   0  0  0  0  0  0  0  0  0  0  0  0
    7.5372   -4.9851    0.0000 C   0  0  0  0  0  0  0  0  0  0  0  0
    6.3882   -5.9492    0.0000 O   0  0  0  0  0  0  0  0  0  0  0  0
    8.9468   -5.4981    0.0000 C   0  0  0  0  0  0  0  0  0  0  0  0
    9.2072   -6.9753    0.0000 C   0  0  0  0  0  0  0  0  0  0  0  0
   10.6168   -7.4883    0.0000 C   0  0  0  0  0  0  0  0  0  0  0  0
   11.7658   -6.5241    0.0000 C   0  0  0  0  0  0  0  0  0  0  0  0
   11.5054   -5.0469    0.0000 C   0  0  0  0  0  0  0  0  0  0  0  0
   10.0958   -4.5339    0.0000 C   0  0  0  0  0  0  0  0  0  0  0  0
    5.6067   -1.5176    0.0000 C   0  0  0  0  0  0  0  0  0  0  0  0
    6.7558   -0.5534    0.0000 O   0  0  0  0  0  0  0  0  0  0  0  0
    6.4953    0.9238    0.0000 C   0  0  0  0  0  0  0  0  0  0  0  0
    7.6444    1.8880    0.0000 C   0  0  0  0  0  0  0  0  0  0  0  0
    8.1574    3.2975    0.0000 C   0  0  0  0  0  0  0  0  0  0  0  0
    9.1216    2.1484    0.0000 O   0  0  0  0  0  0  0  0  0  0  0  0
    4.1972   -1.0046    0.0000 C   0  0  0  0  0  0  0  0  0  0  0  0
    3.9367    0.4726    0.0000 O   0  0  0  0  0  0  0  0  0  0  0  0
    5.0858    1.4368    0.0000 C   0  0  0  0  0  0  0  0  0  0  0  0
    3.0481   -1.9688    0.0000 C   0  0  0  0  0  0  0  0  0  0  0  0
    0.7500   -3.8971    0.0000 P   0  0  0  0  0  0  0  0  0  0  0  0
    0.4895   -5.3743    0.0000 O   0  0  0  0  0  0  0  0  0  0  0  0
    1.5000   -2.5981    0.0000 O   0  0  0  0  0  0  0  0  0  0  0  0
    0.7500   -1.2990    0.0000 C   0  0  0  0  0  0  0  0  0  0  0  0
    1.5000    0.0000    0.0000 C   0  0  0  0  0  0  0  0  0  0  0  0
    0.7500    1.2990    0.0000 C   0  0  0  0  0  0  0  0  0  0  0  0
   -0.7500    1.2990    0.0000 C   0  0  0  0  0  0  0  0  0  0  0  0
   -1.5000    0.0000    0.0000 C   0  0  0  0  0  0  0  0  0  0  0  0
   -0.7500   -1.2990    0.0000 C   0  0  0  0  0  0  0  0  0  0  0  0
   -1.5000   -2.5981    0.0000 C   0  0  0  0  0  0  0  0  0  0  0  0
   -3.0000   -2.5981    0.0000 C   0  0  0  0  0  0  0  0  0  0  0  0
   -3.7500   -3.8971    0.0000 C   0  0  0  0  0  0  0  0  0  0  0  0
   -3.0000   -5.1962    0.0000 C   0  0  0  0  0  0  0  0  0  0  0  0
   -1.5000   -5.1962    0.0000 C   0  0  0  0  0  0  0  0  0  0  0  0
   -0.7500   -3.8971    0.0000 C   0  0  0  0  0  0  0  0  0  0  0  0
    3.8296   -6.4004    0.0000 C   0  0  0  0  0  0  0  0  0  0  0  0
    4.0900   -7.8776    0.0000 C   0  0  0  0  0  0  0  0  0  0  0  0
    2.9410   -8.8418    0.0000 C   0  0  0  0  0  0  0  0  0  0  0  0
    3.2014  -10.3190    0.0000 O   0  0  0  0  0  0  0  0  0  0  0  0
    4.6110  -10.8320    0.0000 C   0  0  0  0  0  0  0  0  0  0  0  0
    4.8714  -12.3092    0.0000 C   0  0  0  0  0  0  0  0  0  0  0  0
    5.8356  -13.4583    0.0000 C   0  0  0  0  0  0  0  0  0  0  0  0
    4.3584  -13.7188    0.0000 O   0  0  0  0  0  0  0  0  0  0  0  0
  1  2  1  0
  2  3  1  0
  3  4  2  0
  4  5  1  0
  5  6  1  0
  6  7  1  0
  7  8  2  0
  8  9  1  0
  9 10  1  0
 10 11  1  0
 11 12  2  0
 11 13  1  0
 13 14  2  0
 14 15  1  0
 15 16  2  0
 16 17  1  0
 17 18  2  0
  9 19  2  0
 19 20  1  0
 20 21  1  0
 21 22  1  0
 22 23  1  0
 23 24  1  0
 19 25  1  0
 25 26  1  0
 26 27  1  0
 25 28  2  0
  6 29  1  0
 29 30  2  0
 29 31  1  0
 31 32  1  0
 32 33  2  0
 33 34  1  0
 34 35  2  0
 35 36  1  0
 36 37  2  0
 37 38  1  0
 38 39  2  0
 39 40  1  0
 40 41  2  0
 41 42  1  0
 42 43  2  0
  5 44  2  0
 44 45  1  0
 45 46  2  0
 46 47  1  0
 47 48  1  0
 48 49  1  0
 49 50  1  0
 50 51  1  0
 46  3  1  0
 51 49  1  0
 28  7  1  0
 43 29  1  0
 18 13  1  0
 24 22  1  0
 37 32  1  0
 43 38  1  0
M  END
>  <Candidate_ID>  (295) 
CAND_R2_295

>  <Candidate_Name>  (295) 
DGEBDB-benzamide-linker

>  <Parent_Seed_ID>  (295) 
TRAIN_004

>  <Parent_Name>  (295) 
DGEBDB

>  <Transformation_Code>  (295) 
benzamide_linker

>  <Design_Family>  (295) 
P-N

>  <Preparation_Type>  (295) 
Additive

>  <Synthesis_Level>  (295) 
B

>  <Parent_Tanimoto_r3>  (295) 
0.6952380952380952

>  <Max_Train_Tanimoto_r3>  (295) 
0.6952380952380952

>  <Risk_Flags>  (295) 
candidate may be outside strict in-domain threshold

$$$$
CAND_R2_296 | DGEBDB-phenyl
     RDKit          2D

 48 55  0  0  0  0  0  0  0  0999 V2000
   -1.0272   -8.7799    0.0000 C   0  0  0  0  0  0  0  0  0  0  0  0
    0.3824   -9.2929    0.0000 O   0  0  0  0  0  0  0  0  0  0  0  0
    1.5314   -8.3287    0.0000 C   0  0  0  0  0  0  0  0  0  0  0  0
    1.2709   -6.8515    0.0000 C   0  0  0  0  0  0  0  0  0  0  0  0
    2.4200   -5.8874    0.0000 C   0  0  0  0  0  0  0  0  0  0  0  0
    2.1595   -4.4101    0.0000 C   0  0  0  0  0  0  0  0  0  0  0  0
    3.3086   -3.4460    0.0000 C   0  0  0  0  0  0  0  0  0  0  0  0
    4.7181   -3.9590    0.0000 C   0  0  0  0  0  0  0  0  0  0  0  0
    5.8672   -2.9948    0.0000 C   0  0  0  0  0  0  0  0  0  0  0  0
    7.2768   -3.5078    0.0000 O   0  0  0  0  0  0  0  0  0  0  0  0
    7.5372   -4.9851    0.0000 C   0  0  0  0  0  0  0  0  0  0  0  0
    5.6067   -1.5176    0.0000 C   0  0  0  0  0  0  0  0  0  0  0  0
    6.7558   -0.5534    0.0000 O   0  0  0  0  0  0  0  0  0  0  0  0
    6.4953    0.9238    0.0000 C   0  0  0  0  0  0  0  0  0  0  0  0
    7.6444    1.8880    0.0000 C   0  0  0  0  0  0  0  0  0  0  0  0
    8.1574    3.2975    0.0000 C   0  0  0  0  0  0  0  0  0  0  0  0
    9.1216    2.1484    0.0000 O   0  0  0  0  0  0  0  0  0  0  0  0
    4.1972   -1.0046    0.0000 C   0  0  0  0  0  0  0  0  0  0  0  0
    3.9367    0.4726    0.0000 C   0  0  0  0  0  0  0  0  0  0  0  0
    5.0858    1.4368    0.0000 C   0  0  0  0  0  0  0  0  0  0  0  0
    4.8253    2.9140    0.0000 C   0  0  0  0  0  0  0  0  0  0  0  0
    3.4158    3.4271    0.0000 C   0  0  0  0  0  0  0  0  0  0  0  0
    2.2667    2.4629    0.0000 C   0  0  0  0  0  0  0  0  0  0  0  0
    2.5272    0.9857    0.0000 C   0  0  0  0  0  0  0  0  0  0  0  0
    3.0481   -1.9688    0.0000 C   0  0  0  0  0  0  0  0  0  0  0  0
    0.7500   -3.8971    0.0000 P   0  0  0  0  0  0  0  0  0  0  0  0
    0.4895   -5.3743    0.0000 O   0  0  0  0  0  0  0  0  0  0  0  0
    1.5000   -2.5981    0.0000 O   0  0  0  0  0  0  0  0  0  0  0  0
    0.7500   -1.2990    0.0000 C   0  0  0  0  0  0  0  0  0  0  0  0
    1.5000    0.0000    0.0000 C   0  0  0  0  0  0  0  0  0  0  0  0
    0.7500    1.2990    0.0000 C   0  0  0  0  0  0  0  0  0  0  0  0
   -0.7500    1.2990    0.0000 C   0  0  0  0  0  0  0  0  0  0  0  0
   -1.5000    0.0000    0.0000 C   0  0  0  0  0  0  0  0  0  0  0  0
   -0.7500   -1.2990    0.0000 C   0  0  0  0  0  0  0  0  0  0  0  0
   -1.5000   -2.5981    0.0000 C   0  0  0  0  0  0  0  0  0  0  0  0
   -3.0000   -2.5981    0.0000 C   0  0  0  0  0  0  0  0  0  0  0  0
   -3.7500   -3.8971    0.0000 C   0  0  0  0  0  0  0  0  0  0  0  0
   -3.0000   -5.1962    0.0000 C   0  0  0  0  0  0  0  0  0  0  0  0
   -1.5000   -5.1962    0.0000 C   0  0  0  0  0  0  0  0  0  0  0  0
   -0.7500   -3.8971    0.0000 C   0  0  0  0  0  0  0  0  0  0  0  0
    3.8296   -6.4004    0.0000 C   0  0  0  0  0  0  0  0  0  0  0  0
    4.0900   -7.8776    0.0000 C   0  0  0  0  0  0  0  0  0  0  0  0
    2.9410   -8.8418    0.0000 C   0  0  0  0  0  0  0  0  0  0  0  0
    3.2014  -10.3190    0.0000 O   0  0  0  0  0  0  0  0  0  0  0  0
    4.6110  -10.8320    0.0000 C   0  0  0  0  0  0  0  0  0  0  0  0
    4.8714  -12.3092    0.0000 C   0  0  0  0  0  0  0  0  0  0  0  0
    5.8356  -13.4583    0.0000 C   0  0  0  0  0  0  0  0  0  0  0  0
    4.3584  -13.7188    0.0000 O   0  0  0  0  0  0  0  0  0  0  0  0
  1  2  1  0
  2  3  1  0
  3  4  2  0
  4  5  1  0
  5  6  1  0
  6  7  1  0
  7  8  2  0
  8  9  1  0
  9 10  1  0
 10 11  1  0
  9 12  2  0
 12 13  1  0
 13 14  1  0
 14 15  1  0
 15 16  1  0
 16 17  1  0
 12 18  1  0
 18 19  1  0
 19 20  2  0
 20 21  1  0
 21 22  2  0
 22 23  1  0
 23 24  2  0
 18 25  2  0
  6 26  1  0
 26 27  2  0
 26 28  1  0
 28 29  1  0
 29 30  2  0
 30 31  1  0
 31 32  2  0
 32 33  1  0
 33 34  2  0
 34 35  1  0
 35 36  2  0
 36 37  1  0
 37 38  2  0
 38 39  1  0
 39 40  2  0
  5 41  2  0
 41 42  1  0
 42 43  2  0
 43 44  1  0
 44 45  1  0
 45 46  1  0
 46 47  1  0
 47 48  1  0
 43  3  1  0
 48 46  1  0
 25  7  1  0
 40 26  1  0
 17 15  1  0
 24 19  1  0
 34 29  1  0
 40 35  1  0
M  END
>  <Candidate_ID>  (296) 
CAND_R2_296

>  <Candidate_Name>  (296) 
DGEBDB-phenyl

>  <Parent_Seed_ID>  (296) 
TRAIN_004

>  <Parent_Name>  (296) 
DGEBDB

>  <Transformation_Code>  (296) 
phenyl

>  <Design_Family>  (296) 
P-only

>  <Preparation_Type>  (296) 
Additive

>  <Synthesis_Level>  (296) 
B

>  <Parent_Tanimoto_r3>  (296) 
0.7525773195876289

>  <Max_Train_Tanimoto_r3>  (296) 
0.7525773195876289

>  <Risk_Flags>  (296) 
none

$$$$
CAND_R2_297 | DGEBDB-biphenyl
     RDKit          2D

 54 62  0  0  0  0  0  0  0  0999 V2000
   -1.0272   -8.7799    0.0000 C   0  0  0  0  0  0  0  0  0  0  0  0
    0.3824   -9.2929    0.0000 O   0  0  0  0  0  0  0  0  0  0  0  0
    1.5314   -8.3287    0.0000 C   0  0  0  0  0  0  0  0  0  0  0  0
    1.2709   -6.8515    0.0000 C   0  0  0  0  0  0  0  0  0  0  0  0
    2.4200   -5.8874    0.0000 C   0  0  0  0  0  0  0  0  0  0  0  0
    2.1595   -4.4101    0.0000 C   0  0  0  0  0  0  0  0  0  0  0  0
    3.3086   -3.4460    0.0000 C   0  0  0  0  0  0  0  0  0  0  0  0
    4.7181   -3.9590    0.0000 C   0  0  0  0  0  0  0  0  0  0  0  0
    5.8672   -2.9948    0.0000 C   0  0  0  0  0  0  0  0  0  0  0  0
    7.2768   -3.5078    0.0000 O   0  0  0  0  0  0  0  0  0  0  0  0
    7.5372   -4.9851    0.0000 C   0  0  0  0  0  0  0  0  0  0  0  0
    5.6067   -1.5176    0.0000 C   0  0  0  0  0  0  0  0  0  0  0  0
    6.7558   -0.5534    0.0000 O   0  0  0  0  0  0  0  0  0  0  0  0
    6.4953    0.9238    0.0000 C   0  0  0  0  0  0  0  0  0  0  0  0
    7.6444    1.8880    0.0000 C   0  0  0  0  0  0  0  0  0  0  0  0
    8.1574    3.2975    0.0000 C   0  0  0  0  0  0  0  0  0  0  0  0
    9.1216    2.1484    0.0000 O   0  0  0  0  0  0  0  0  0  0  0  0
    4.1972   -1.0046    0.0000 C   0  0  0  0  0  0  0  0  0  0  0  0
    3.9367    0.4726    0.0000 C   0  0  0  0  0  0  0  0  0  0  0  0
    5.0858    1.4368    0.0000 C   0  0  0  0  0  0  0  0  0  0  0  0
    4.8253    2.9140    0.0000 C   0  0  0  0  0  0  0  0  0  0  0  0
    3.4158    3.4271    0.0000 C   0  0  0  0  0  0  0  0  0  0  0  0
    3.1553    4.9043    0.0000 C   0  0  0  0  0  0  0  0  0  0  0  0
    4.3044    5.8685    0.0000 C   0  0  0  0  0  0  0  0  0  0  0  0
    4.0439    7.3457    0.0000 C   0  0  0  0  0  0  0  0  0  0  0  0
    2.6344    7.8587    0.0000 C   0  0  0  0  0  0  0  0  0  0  0  0
    1.4853    6.8945    0.0000 C   0  0  0  0  0  0  0  0  0  0  0  0
    1.7458    5.4173    0.0000 C   0  0  0  0  0  0  0  0  0  0  0  0
    2.2667    2.4629    0.0000 C   0  0  0  0  0  0  0  0  0  0  0  0
    2.5272    0.9857    0.0000 C   0  0  0  0  0  0  0  0  0  0  0  0
    3.0481   -1.9688    0.0000 C   0  0  0  0  0  0  0  0  0  0  0  0
    0.7500   -3.8971    0.0000 P   0  0  0  0  0  0  0  0  0  0  0  0
    0.4895   -5.3743    0.0000 O   0  0  0  0  0  0  0  0  0  0  0  0
    1.5000   -2.5981    0.0000 O   0  0  0  0  0  0  0  0  0  0  0  0
    0.7500   -1.2990    0.0000 C   0  0  0  0  0  0  0  0  0  0  0  0
    1.5000    0.0000    0.0000 C   0  0  0  0  0  0  0  0  0  0  0  0
    0.7500    1.2990    0.0000 C   0  0  0  0  0  0  0  0  0  0  0  0
   -0.7500    1.2990    0.0000 C   0  0  0  0  0  0  0  0  0  0  0  0
   -1.5000    0.0000    0.0000 C   0  0  0  0  0  0  0  0  0  0  0  0
   -0.7500   -1.2990    0.0000 C   0  0  0  0  0  0  0  0  0  0  0  0
   -1.5000   -2.5981    0.0000 C   0  0  0  0  0  0  0  0  0  0  0  0
   -3.0000   -2.5981    0.0000 C   0  0  0  0  0  0  0  0  0  0  0  0
   -3.7500   -3.8971    0.0000 C   0  0  0  0  0  0  0  0  0  0  0  0
   -3.0000   -5.1962    0.0000 C   0  0  0  0  0  0  0  0  0  0  0  0
   -1.5000   -5.1962    0.0000 C   0  0  0  0  0  0  0  0  0  0  0  0
   -0.7500   -3.8971    0.0000 C   0  0  0  0  0  0  0  0  0  0  0  0
    3.8296   -6.4004    0.0000 C   0  0  0  0  0  0  0  0  0  0  0  0
    4.0900   -7.8776    0.0000 C   0  0  0  0  0  0  0  0  0  0  0  0
    2.9410   -8.8418    0.0000 C   0  0  0  0  0  0  0  0  0  0  0  0
    3.2014  -10.3190    0.0000 O   0  0  0  0  0  0  0  0  0  0  0  0
    4.6110  -10.8320    0.0000 C   0  0  0  0  0  0  0  0  0  0  0  0
    4.8714  -12.3092    0.0000 C   0  0  0  0  0  0  0  0  0  0  0  0
    5.8356  -13.4583    0.0000 C   0  0  0  0  0  0  0  0  0  0  0  0
    4.3584  -13.7188    0.0000 O   0  0  0  0  0  0  0  0  0  0  0  0
  1  2  1  0
  2  3  1  0
  3  4  2  0
  4  5  1  0
  5  6  1  0
  6  7  1  0
  7  8  2  0
  8  9  1  0
  9 10  1  0
 10 11  1  0
  9 12  2  0
 12 13  1  0
 13 14  1  0
 14 15  1  0
 15 16  1  0
 16 17  1  0
 12 18  1  0
 18 19  1  0
 19 20  2  0
 20 21  1  0
 21 22  2  0
 22 23  1  0
 23 24  2  0
 24 25  1  0
 25 26  2  0
 26 27  1  0
 27 28  2  0
 22 29  1  0
 29 30  2  0
 18 31  2  0
  6 32  1  0
 32 33  2  0
 32 34  1  0
 34 35  1  0
 35 36  2  0
 36 37  1  0
 37 38  2  0
 38 39  1  0
 39 40  2  0
 40 41  1  0
 41 42  2  0
 42 43  1  0
 43 44  2  0
 44 45  1  0
 45 46  2  0
  5 47  2  0
 47 48  1  0
 48 49  2  0
 49 50  1  0
 50 51  1  0
 51 52  1  0
 52 53  1  0
 53 54  1  0
 49  3  1  0
 54 52  1  0
 31  7  1  0
 46 32  1  0
 17 15  1  0
 30 19  1  0
 40 35  1  0
 46 41  1  0
 28 23  1  0
M  END
>  <Candidate_ID>  (297) 
CAND_R2_297

>  <Candidate_Name>  (297) 
DGEBDB-biphenyl

>  <Parent_Seed_ID>  (297) 
TRAIN_004

>  <Parent_Name>  (297) 
DGEBDB

>  <Transformation_Code>  (297) 
biphenyl

>  <Design_Family>  (297) 
P-only

>  <Preparation_Type>  (297) 
Additive

>  <Synthesis_Level>  (297) 
B

>  <Parent_Tanimoto_r3>  (297) 
0.7087378640776699

>  <Max_Train_Tanimoto_r3>  (297) 
0.7087378640776699

>  <Risk_Flags>  (297) 
none

$$$$
CAND_R2_298 | DGEBDB-methoxy-to-phenol-all
     RDKit          2D

 40 46  0  0  0  0  0  0  0  0999 V2000
    0.4895   -5.3743    0.0000 O   0  0  0  0  0  0  0  0  0  0  0  0
    0.7500   -3.8971    0.0000 P   0  0  0  0  0  0  0  0  0  0  0  0
    2.1595   -4.4101    0.0000 C   0  0  0  0  0  0  0  0  0  0  0  0
    2.4200   -5.8874    0.0000 C   0  0  0  0  0  0  0  0  0  0  0  0
    1.2709   -6.8515    0.0000 C   0  0  0  0  0  0  0  0  0  0  0  0
    1.5314   -8.3287    0.0000 C   0  0  0  0  0  0  0  0  0  0  0  0
    2.9410   -8.8418    0.0000 C   0  0  0  0  0  0  0  0  0  0  0  0
    3.2014  -10.3190    0.0000 O   0  0  0  0  0  0  0  0  0  0  0  0
    2.0524  -11.2832    0.0000 C   0  0  0  0  0  0  0  0  0  0  0  0
    2.3128  -12.7604    0.0000 C   0  0  0  0  0  0  0  0  0  0  0  0
    3.2770  -13.9095    0.0000 C   0  0  0  0  0  0  0  0  0  0  0  0
    1.7998  -14.1699    0.0000 O   0  0  0  0  0  0  0  0  0  0  0  0
    4.0900   -7.8776    0.0000 C   0  0  0  0  0  0  0  0  0  0  0  0
    5.4996   -8.3906    0.0000 O   0  0  0  0  0  0  0  0  0  0  0  0
    3.8296   -6.4004    0.0000 C   0  0  0  0  0  0  0  0  0  0  0  0
    3.3086   -3.4460    0.0000 C   0  0  0  0  0  0  0  0  0  0  0  0
    4.7181   -3.9590    0.0000 C   0  0  0  0  0  0  0  0  0  0  0  0
    5.8672   -2.9948    0.0000 C   0  0  0  0  0  0  0  0  0  0  0  0
    5.6067   -1.5176    0.0000 C   0  0  0  0  0  0  0  0  0  0  0  0
    6.7558   -0.5534    0.0000 O   0  0  0  0  0  0  0  0  0  0  0  0
    8.1653   -1.0664    0.0000 C   0  0  0  0  0  0  0  0  0  0  0  0
    9.3144   -0.1023    0.0000 C   0  0  0  0  0  0  0  0  0  0  0  0
    9.8274    1.3073    0.0000 C   0  0  0  0  0  0  0  0  0  0  0  0
   10.7916    0.1582    0.0000 O   0  0  0  0  0  0  0  0  0  0  0  0
    4.1972   -1.0046    0.0000 C   0  0  0  0  0  0  0  0  0  0  0  0
    3.9367    0.4726    0.0000 O   0  0  0  0  0  0  0  0  0  0  0  0
    3.0481   -1.9688    0.0000 C   0  0  0  0  0  0  0  0  0  0  0  0
    1.5000   -2.5981    0.0000 O   0  0  0  0  0  0  0  0  0  0  0  0
    0.7500   -1.2990    0.0000 C   0  0  0  0  0  0  0  0  0  0  0  0
    1.5000    0.0000    0.0000 C   0  0  0  0  0  0  0  0  0  0  0  0
    0.7500    1.2990    0.0000 C   0  0  0  0  0  0  0  0  0  0  0  0
   -0.7500    1.2990    0.0000 C   0  0  0  0  0  0  0  0  0  0  0  0
   -1.5000    0.0000    0.0000 C   0  0  0  0  0  0  0  0  0  0  0  0
   -0.7500   -1.2990    0.0000 C   0  0  0  0  0  0  0  0  0  0  0  0
   -1.5000   -2.5981    0.0000 C   0  0  0  0  0  0  0  0  0  0  0  0
   -3.0000   -2.5981    0.0000 C   0  0  0  0  0  0  0  0  0  0  0  0
   -3.7500   -3.8971    0.0000 C   0  0  0  0  0  0  0  0  0  0  0  0
   -3.0000   -5.1962    0.0000 C   0  0  0  0  0  0  0  0  0  0  0  0
   -1.5000   -5.1962    0.0000 C   0  0  0  0  0  0  0  0  0  0  0  0
   -0.7500   -3.8971    0.0000 C   0  0  0  0  0  0  0  0  0  0  0  0
  1  2  2  0
  2  3  1  0
  3  4  1  0
  4  5  2  0
  5  6  1  0
  6  7  2  0
  7  8  1  0
  8  9  1  0
  9 10  1  0
 10 11  1  0
 11 12  1  0
  7 13  1  0
 13 14  1  0
 13 15  2  0
  3 16  1  0
 16 17  2  0
 17 18  1  0
 18 19  2  0
 19 20  1  0
 20 21  1  0
 21 22  1  0
 22 23  1  0
 23 24  1  0
 19 25  1  0
 25 26  1  0
 25 27  2  0
  2 28  1  0
 28 29  1  0
 29 30  2  0
 30 31  1  0
 31 32  2  0
 32 33  1  0
 33 34  2  0
 34 35  1  0
 35 36  2  0
 36 37  1  0
 37 38  2  0
 38 39  1  0
 39 40  2  0
 40  2  1  0
 15  4  1  0
 27 16  1  0
 34 29  1  0
 40 35  1  0
 12 10  1  0
 24 22  1  0
M  END
>  <Candidate_ID>  (298) 
CAND_R2_298

>  <Candidate_Name>  (298) 
DGEBDB-methoxy-to-phenol-all

>  <Parent_Seed_ID>  (298) 
TRAIN_004

>  <Parent_Name>  (298) 
DGEBDB

>  <Transformation_Code>  (298) 
methoxy_to_phenol_all

>  <Design_Family>  (298) 
P-only

>  <Preparation_Type>  (298) 
Additive

>  <Synthesis_Level>  (298) 
B

>  <Parent_Tanimoto_r3>  (298) 
0.7294117647058823

>  <Max_Train_Tanimoto_r3>  (298) 
0.7294117647058823

>  <Risk_Flags>  (298) 
none

$$$$
CAND_R2_299 | D-AZ-amino
     RDKit          2D

 22 25  0  0  0  0  0  0  0  0999 V2000
    1.4247   -9.6390    0.0000 N   0  0  0  0  0  0  0  0  0  0  0  0
    2.0822   -8.2908    0.0000 C   0  0  0  0  0  0  0  0  0  0  0  0
    3.5594   -8.0303    0.0000 C   0  0  0  0  0  0  0  0  0  0  0  0
    3.7682   -6.5449    0.0000 N   0  0  0  0  0  0  0  0  0  0  0  0
    2.4200   -5.8874    0.0000 C   0  0  0  0  0  0  0  0  0  0  0  0
    2.1595   -4.4101    0.0000 N   0  0  0  0  0  0  0  0  0  0  0  0
    0.7500   -3.8971    0.0000 P   0  0  0  0  0  0  0  0  0  0  0  0
    0.4895   -5.3743    0.0000 O   0  0  0  0  0  0  0  0  0  0  0  0
    1.5000   -2.5981    0.0000 O   0  0  0  0  0  0  0  0  0  0  0  0
    0.7500   -1.2990    0.0000 C   0  0  0  0  0  0  0  0  0  0  0  0
    1.5000    0.0000    0.0000 C   0  0  0  0  0  0  0  0  0  0  0  0
    0.7500    1.2990    0.0000 C   0  0  0  0  0  0  0  0  0  0  0  0
   -0.7500    1.2990    0.0000 C   0  0  0  0  0  0  0  0  0  0  0  0
   -1.5000    0.0000    0.0000 C   0  0  0  0  0  0  0  0  0  0  0  0
   -0.7500   -1.2990    0.0000 C   0  0  0  0  0  0  0  0  0  0  0  0
   -1.5000   -2.5981    0.0000 C   0  0  0  0  0  0  0  0  0  0  0  0
   -3.0000   -2.5981    0.0000 C   0  0  0  0  0  0  0  0  0  0  0  0
   -3.7500   -3.8971    0.0000 C   0  0  0  0  0  0  0  0  0  0  0  0
   -3.0000   -5.1962    0.0000 C   0  0  0  0  0  0  0  0  0  0  0  0
   -1.5000   -5.1962    0.0000 C   0  0  0  0  0  0  0  0  0  0  0  0
   -0.7500   -3.8971    0.0000 C   0  0  0  0  0  0  0  0  0  0  0  0
    1.3780   -6.9664    0.0000 S   0  0  0  0  0  0  0  0  0  0  0  0
  1  2  1  0
  2  3  2  0
  3  4  1  0
  4  5  2  0
  5  6  1  0
  6  7  1  0
  7  8  2  0
  7  9  1  0
  9 10  1  0
 10 11  2  0
 11 12  1  0
 12 13  2  0
 13 14  1  0
 14 15  2  0
 15 16  1  0
 16 17  2  0
 17 18  1  0
 18 19  2  0
 19 20  1  0
 20 21  2  0
  5 22  1  0
 22  2  1  0
 21  7  1  0
 15 10  1  0
 21 16  1  0
M  END
>  <Candidate_ID>  (299) 
CAND_R2_299

>  <Candidate_Name>  (299) 
D-AZ-amino

>  <Parent_Seed_ID>  (299) 
TRAIN_042

>  <Parent_Name>  (299) 
D-AZ

>  <Transformation_Code>  (299) 
amino

>  <Design_Family>  (299) 
P-N-S

>  <Preparation_Type>  (299) 
Co-curing

>  <Synthesis_Level>  (299) 
B

>  <Parent_Tanimoto_r3>  (299) 
0.6231884057971014

>  <Max_Train_Tanimoto_r3>  (299) 
0.6231884057971014

>  <Risk_Flags>  (299) 
large structural change from parent; candidate may be outside strict in-domain threshold

$$$$
CAND_R2_300 | D-AZ-hydroxy
     RDKit          2D

 22 25  0  0  0  0  0  0  0  0999 V2000
    0.4895   -5.3743    0.0000 O   0  0  0  0  0  0  0  0  0  0  0  0
    0.7500   -3.8971    0.0000 P   0  0  0  0  0  0  0  0  0  0  0  0
    2.1595   -4.4101    0.0000 N   0  0  0  0  0  0  0  0  0  0  0  0
    2.4200   -5.8874    0.0000 C   0  0  0  0  0  0  0  0  0  0  0  0
    3.7682   -6.5449    0.0000 N   0  0  0  0  0  0  0  0  0  0  0  0
    3.5594   -8.0303    0.0000 C   0  0  0  0  0  0  0  0  0  0  0  0
    2.0822   -8.2908    0.0000 C   0  0  0  0  0  0  0  0  0  0  0  0
    1.4247   -9.6390    0.0000 O   0  0  0  0  0  0  0  0  0  0  0  0
    1.3780   -6.9664    0.0000 S   0  0  0  0  0  0  0  0  0  0  0  0
    1.5000   -2.5981    0.0000 O   0  0  0  0  0  0  0  0  0  0  0  0
    0.7500   -1.2990    0.0000 C   0  0  0  0  0  0  0  0  0  0  0  0
    1.5000    0.0000    0.0000 C   0  0  0  0  0  0  0  0  0  0  0  0
    0.7500    1.2990    0.0000 C   0  0  0  0  0  0  0  0  0  0  0  0
   -0.7500    1.2990    0.0000 C   0  0  0  0  0  0  0  0  0  0  0  0
   -1.5000    0.0000    0.0000 C   0  0  0  0  0  0  0  0  0  0  0  0
   -0.7500   -1.2990    0.0000 C   0  0  0  0  0  0  0  0  0  0  0  0
   -1.5000   -2.5981    0.0000 C   0  0  0  0  0  0  0  0  0  0  0  0
   -3.0000   -2.5981    0.0000 C   0  0  0  0  0  0  0  0  0  0  0  0
   -3.7500   -3.8971    0.0000 C   0  0  0  0  0  0  0  0  0  0  0  0
   -3.0000   -5.1962    0.0000 C   0  0  0  0  0  0  0  0  0  0  0  0
   -1.5000   -5.1962    0.0000 C   0  0  0  0  0  0  0  0  0  0  0  0
   -0.7500   -3.8971    0.0000 C   0  0  0  0  0  0  0  0  0  0  0  0
  1  2  2  0
  2  3  1  0
  3  4  1  0
  4  5  2  0
  5  6  1  0
  6  7  2  0
  7  8  1  0
  7  9  1  0
  2 10  1  0
 10 11  1  0
 11 12  2  0
 12 13  1  0
 13 14  2  0
 14 15  1  0
 15 16  2  0
 16 17  1  0
 17 18  2  0
 18 19  1  0
 19 20  2  0
 20 21  1  0
 21 22  2  0
 22  2  1  0
  9  4  1  0
 16 11  1  0
 22 17  1  0
M  END
>  <Candidate_ID>  (300) 
CAND_R2_300

>  <Candidate_Name>  (300) 
D-AZ-hydroxy

>  <Parent_Seed_ID>  (300) 
TRAIN_042

>  <Parent_Name>  (300) 
D-AZ

>  <Transformation_Code>  (300) 
hydroxy

>  <Design_Family>  (300) 
P-N-S

>  <Preparation_Type>  (300) 
Additive

>  <Synthesis_Level>  (300) 
B

>  <Parent_Tanimoto_r3>  (300) 
0.6231884057971014

>  <Max_Train_Tanimoto_r3>  (300) 
0.6231884057971014

>  <Risk_Flags>  (300) 
large structural change from parent; candidate may be outside strict in-domain threshold

$$$$
CAND_R2_301 | D-AZ-hydroxymethyl
     RDKit          2D

 23 26  0  0  0  0  0  0  0  0999 V2000
    0.4895   -5.3743    0.0000 O   0  0  0  0  0  0  0  0  0  0  0  0
    0.7500   -3.8971    0.0000 P   0  0  0  0  0  0  0  0  0  0  0  0
    2.1595   -4.4101    0.0000 N   0  0  0  0  0  0  0  0  0  0  0  0
    2.4200   -5.8874    0.0000 C   0  0  0  0  0  0  0  0  0  0  0  0
    3.7682   -6.5449    0.0000 N   0  0  0  0  0  0  0  0  0  0  0  0
    3.5594   -8.0303    0.0000 C   0  0  0  0  0  0  0  0  0  0  0  0
    2.0822   -8.2908    0.0000 C   0  0  0  0  0  0  0  0  0  0  0  0
    1.4247   -9.6390    0.0000 C   0  0  0  0  0  0  0  0  0  0  0  0
   -0.0717   -9.7436    0.0000 O   0  0  0  0  0  0  0  0  0  0  0  0
    1.3780   -6.9664    0.0000 S   0  0  0  0  0  0  0  0  0  0  0  0
    1.5000   -2.5981    0.0000 O   0  0  0  0  0  0  0  0  0  0  0  0
    0.7500   -1.2990    0.0000 C   0  0  0  0  0  0  0  0  0  0  0  0
    1.5000    0.0000    0.0000 C   0  0  0  0  0  0  0  0  0  0  0  0
    0.7500    1.2990    0.0000 C   0  0  0  0  0  0  0  0  0  0  0  0
   -0.7500    1.2990    0.0000 C   0  0  0  0  0  0  0  0  0  0  0  0
   -1.5000    0.0000    0.0000 C   0  0  0  0  0  0  0  0  0  0  0  0
   -0.7500   -1.2990    0.0000 C   0  0  0  0  0  0  0  0  0  0  0  0
   -1.5000   -2.5981    0.0000 C   0  0  0  0  0  0  0  0  0  0  0  0
   -3.0000   -2.5981    0.0000 C   0  0  0  0  0  0  0  0  0  0  0  0
   -3.7500   -3.8971    0.0000 C   0  0  0  0  0  0  0  0  0  0  0  0
   -3.0000   -5.1962    0.0000 C   0  0  0  0  0  0  0  0  0  0  0  0
   -1.5000   -5.1962    0.0000 C   0  0  0  0  0  0  0  0  0  0  0  0
   -0.7500   -3.8971    0.0000 C   0  0  0  0  0  0  0  0  0  0  0  0
  1  2  2  0
  2  3  1  0
  3  4  1  0
  4  5  2  0
  5  6  1  0
  6  7  2  0
  7  8  1  0
  8  9  1  0
  7 10  1  0
  2 11  1  0
 11 12  1  0
 12 13  2  0
 13 14  1  0
 14 15  2  0
 15 16  1  0
 16 17  2  0
 17 18  1  0
 18 19  2  0
 19 20  1  0
 20 21  2  0
 21 22  1  0
 22 23  2  0
 23  2  1  0
 10  4  1  0
 17 12  1  0
 23 18  1  0
M  END
>  <Candidate_ID>  (301) 
CAND_R2_301

>  <Candidate_Name>  (301) 
D-AZ-hydroxymethyl

>  <Parent_Seed_ID>  (301) 
TRAIN_042

>  <Parent_Name>  (301) 
D-AZ

>  <Transformation_Code>  (301) 
hydroxymethyl

>  <Design_Family>  (301) 
P-N-S

>  <Preparation_Type>  (301) 
Additive

>  <Synthesis_Level>  (301) 
B

>  <Parent_Tanimoto_r3>  (301) 
0.5972222222222222

>  <Max_Train_Tanimoto_r3>  (301) 
0.5972222222222222

>  <Risk_Flags>  (301) 
large structural change from parent; candidate may be outside strict in-domain threshold

$$$$
CAND_R2_302 | D-AZ-carboxamide
     RDKit          2D

 24 27  0  0  0  0  0  0  0  0999 V2000
   -0.0717   -9.7436    0.0000 N   0  0  0  0  0  0  0  0  0  0  0  0
    1.4247   -9.6390    0.0000 C   0  0  0  0  0  0  0  0  0  0  0  0
    2.2635  -10.8825    0.0000 O   0  0  0  0  0  0  0  0  0  0  0  0
    2.0822   -8.2908    0.0000 C   0  0  0  0  0  0  0  0  0  0  0  0
    3.5594   -8.0303    0.0000 C   0  0  0  0  0  0  0  0  0  0  0  0
    3.7682   -6.5449    0.0000 N   0  0  0  0  0  0  0  0  0  0  0  0
    2.4200   -5.8874    0.0000 C   0  0  0  0  0  0  0  0  0  0  0  0
    2.1595   -4.4101    0.0000 N   0  0  0  0  0  0  0  0  0  0  0  0
    0.7500   -3.8971    0.0000 P   0  0  0  0  0  0  0  0  0  0  0  0
    0.4895   -5.3743    0.0000 O   0  0  0  0  0  0  0  0  0  0  0  0
    1.5000   -2.5981    0.0000 O   0  0  0  0  0  0  0  0  0  0  0  0
    0.7500   -1.2990    0.0000 C   0  0  0  0  0  0  0  0  0  0  0  0
    1.5000    0.0000    0.0000 C   0  0  0  0  0  0  0  0  0  0  0  0
    0.7500    1.2990    0.0000 C   0  0  0  0  0  0  0  0  0  0  0  0
   -0.7500    1.2990    0.0000 C   0  0  0  0  0  0  0  0  0  0  0  0
   -1.5000    0.0000    0.0000 C   0  0  0  0  0  0  0  0  0  0  0  0
   -0.7500   -1.2990    0.0000 C   0  0  0  0  0  0  0  0  0  0  0  0
   -1.5000   -2.5981    0.0000 C   0  0  0  0  0  0  0  0  0  0  0  0
   -3.0000   -2.5981    0.0000 C   0  0  0  0  0  0  0  0  0  0  0  0
   -3.7500   -3.8971    0.0000 C   0  0  0  0  0  0  0  0  0  0  0  0
   -3.0000   -5.1962    0.0000 C   0  0  0  0  0  0  0  0  0  0  0  0
   -1.5000   -5.1962    0.0000 C   0  0  0  0  0  0  0  0  0  0  0  0
   -0.7500   -3.8971    0.0000 C   0  0  0  0  0  0  0  0  0  0  0  0
    1.3780   -6.9664    0.0000 S   0  0  0  0  0  0  0  0  0  0  0  0
  1  2  1  0
  2  3  2  0
  2  4  1  0
  4  5  2  0
  5  6  1  0
  6  7  2  0
  7  8  1  0
  8  9  1  0
  9 10  2  0
  9 11  1  0
 11 12  1  0
 12 13  2  0
 13 14  1  0
 14 15  2  0
 15 16  1  0
 16 17  2  0
 17 18  1  0
 18 19  2  0
 19 20  1  0
 20 21  2  0
 21 22  1  0
 22 23  2  0
  7 24  1  0
 24  4  1  0
 23  9  1  0
 17 12  1  0
 23 18  1  0
M  END
>  <Candidate_ID>  (302) 
CAND_R2_302

>  <Candidate_Name>  (302) 
D-AZ-carboxamide

>  <Parent_Seed_ID>  (302) 
TRAIN_042

>  <Parent_Name>  (302) 
D-AZ

>  <Transformation_Code>  (302) 
carboxamide

>  <Design_Family>  (302) 
P-N-S

>  <Preparation_Type>  (302) 
Additive

>  <Synthesis_Level>  (302) 
B

>  <Parent_Tanimoto_r3>  (302) 
0.581081081081081

>  <Max_Train_Tanimoto_r3>  (302) 
0.581081081081081

>  <Risk_Flags>  (302) 
large structural change from parent; candidate may be outside strict in-domain threshold

$$$$
CAND_R2_303 | D-AZ-boronic-acid
     RDKit          2D

 24 27  0  0  0  0  0  0  0  0999 V2000
    0.4895   -5.3743    0.0000 O   0  0  0  0  0  0  0  0  0  0  0  0
    0.7500   -3.8971    0.0000 P   0  0  0  0  0  0  0  0  0  0  0  0
    2.1595   -4.4101    0.0000 N   0  0  0  0  0  0  0  0  0  0  0  0
    2.4200   -5.8874    0.0000 C   0  0  0  0  0  0  0  0  0  0  0  0
    3.7682   -6.5449    0.0000 N   0  0  0  0  0  0  0  0  0  0  0  0
    3.5594   -8.0303    0.0000 C   0  0  0  0  0  0  0  0  0  0  0  0
    2.0822   -8.2908    0.0000 C   0  0  0  0  0  0  0  0  0  0  0  0
    1.4247   -9.6390    0.0000 B   0  0  0  0  0  0  0  0  0  0  0  0
   -0.0717   -9.7436    0.0000 O   0  0  0  0  0  0  0  0  0  0  0  0
    2.2635  -10.8825    0.0000 O   0  0  0  0  0  0  0  0  0  0  0  0
    1.3780   -6.9664    0.0000 S   0  0  0  0  0  0  0  0  0  0  0  0
    1.5000   -2.5981    0.0000 O   0  0  0  0  0  0  0  0  0  0  0  0
    0.7500   -1.2990    0.0000 C   0  0  0  0  0  0  0  0  0  0  0  0
    1.5000    0.0000    0.0000 C   0  0  0  0  0  0  0  0  0  0  0  0
    0.7500    1.2990    0.0000 C   0  0  0  0  0  0  0  0  0  0  0  0
   -0.7500    1.2990    0.0000 C   0  0  0  0  0  0  0  0  0  0  0  0
   -1.5000    0.0000    0.0000 C   0  0  0  0  0  0  0  0  0  0  0  0
   -0.7500   -1.2990    0.0000 C   0  0  0  0  0  0  0  0  0  0  0  0
   -1.5000   -2.5981    0.0000 C   0  0  0  0  0  0  0  0  0  0  0  0
   -3.0000   -2.5981    0.0000 C   0  0  0  0  0  0  0  0  0  0  0  0
   -3.7500   -3.8971    0.0000 C   0  0  0  0  0  0  0  0  0  0  0  0
   -3.0000   -5.1962    0.0000 C   0  0  0  0  0  0  0  0  0  0  0  0
   -1.5000   -5.1962    0.0000 C   0  0  0  0  0  0  0  0  0  0  0  0
   -0.7500   -3.8971    0.0000 C   0  0  0  0  0  0  0  0  0  0  0  0
  1  2  2  0
  2  3  1  0
  3  4  1  0
  4  5  2  0
  5  6  1  0
  6  7  2  0
  7  8  1  0
  8  9  1  0
  8 10  1  0
  7 11  1  0
  2 12  1  0
 12 13  1  0
 13 14  2  0
 14 15  1  0
 15 16  2  0
 16 17  1  0
 17 18  2  0
 18 19  1  0
 19 20  2  0
 20 21  1  0
 21 22  2  0
 22 23  1  0
 23 24  2  0
 24  2  1  0
 11  4  1  0
 18 13  1  0
 24 19  1  0
M  END
>  <Candidate_ID>  (303) 
CAND_R2_303

>  <Candidate_Name>  (303) 
D-AZ-boronic-acid

>  <Parent_Seed_ID>  (303) 
TRAIN_042

>  <Parent_Name>  (303) 
D-AZ

>  <Transformation_Code>  (303) 
boronic_acid

>  <Design_Family>  (303) 
P-N-B-S

>  <Preparation_Type>  (303) 
Additive

>  <Synthesis_Level>  (303) 
B

>  <Parent_Tanimoto_r3>  (303) 
0.589041095890411

>  <Max_Train_Tanimoto_r3>  (303) 
0.589041095890411

>  <Risk_Flags>  (303) 
large structural change from parent; candidate may be outside strict in-domain threshold

$$$$
CAND_R2_304 | D-AZ-pinacol-boronate
     RDKit          2D

 30 34  0  0  0  0  0  0  0  0999 V2000
    8.0634   -9.2975    0.0000 C   0  0  0  0  0  0  0  0  0  0  0  0
    6.8199  -10.1363    0.0000 C   0  0  0  0  0  0  0  0  0  0  0  0
    7.7841  -11.2853    0.0000 C   0  0  0  0  0  0  0  0  0  0  0  0
    6.1157   -8.8118    0.0000 O   0  0  0  0  0  0  0  0  0  0  0  0
    4.6385   -9.0723    0.0000 B   0  0  0  0  0  0  0  0  0  0  0  0
    3.5594   -8.0303    0.0000 C   0  0  0  0  0  0  0  0  0  0  0  0
    2.0822   -8.2908    0.0000 C   0  0  0  0  0  0  0  0  0  0  0  0
    1.3780   -6.9664    0.0000 N   0  0  0  0  0  0  0  0  0  0  0  0
    2.4200   -5.8874    0.0000 C   0  0  0  0  0  0  0  0  0  0  0  0
    2.1595   -4.4101    0.0000 N   0  0  0  0  0  0  0  0  0  0  0  0
    0.7500   -3.8971    0.0000 P   0  0  0  0  0  0  0  0  0  0  0  0
    0.4895   -5.3743    0.0000 O   0  0  0  0  0  0  0  0  0  0  0  0
    1.5000   -2.5981    0.0000 O   0  0  0  0  0  0  0  0  0  0  0  0
    0.7500   -1.2990    0.0000 C   0  0  0  0  0  0  0  0  0  0  0  0
    1.5000    0.0000    0.0000 C   0  0  0  0  0  0  0  0  0  0  0  0
    0.7500    1.2990    0.0000 C   0  0  0  0  0  0  0  0  0  0  0  0
   -0.7500    1.2990    0.0000 C   0  0  0  0  0  0  0  0  0  0  0  0
   -1.5000    0.0000    0.0000 C   0  0  0  0  0  0  0  0  0  0  0  0
   -0.7500   -1.2990    0.0000 C   0  0  0  0  0  0  0  0  0  0  0  0
   -1.5000   -2.5981    0.0000 C   0  0  0  0  0  0  0  0  0  0  0  0
   -3.0000   -2.5981    0.0000 C   0  0  0  0  0  0  0  0  0  0  0  0
   -3.7500   -3.8971    0.0000 C   0  0  0  0  0  0  0  0  0  0  0  0
   -3.0000   -5.1962    0.0000 C   0  0  0  0  0  0  0  0  0  0  0  0
   -1.5000   -5.1962    0.0000 C   0  0  0  0  0  0  0  0  0  0  0  0
   -0.7500   -3.8971    0.0000 C   0  0  0  0  0  0  0  0  0  0  0  0
    3.7682   -6.5449    0.0000 S   0  0  0  0  0  0  0  0  0  0  0  0
    4.4297  -10.5577    0.0000 O   0  0  0  0  0  0  0  0  0  0  0  0
    5.7779  -11.2153    0.0000 C   0  0  0  0  0  0  0  0  0  0  0  0
    6.9599  -12.1388    0.0000 C   0  0  0  0  0  0  0  0  0  0  0  0
    4.9830  -12.4873    0.0000 C   0  0  0  0  0  0  0  0  0  0  0  0
  1  2  1  0
  2  3  1  0
  2  4  1  0
  4  5  1  0
  5  6  1  0
  6  7  2  0
  7  8  1  0
  8  9  2  0
  9 10  1  0
 10 11  1  0
 11 12  2  0
 11 13  1  0
 13 14  1  0
 14 15  2  0
 15 16  1  0
 16 17  2  0
 17 18  1  0
 18 19  2  0
 19 20  1  0
 20 21  2  0
 21 22  1  0
 22 23  2  0
 23 24  1  0
 24 25  2  0
  9 26  1  0
  5 27  1  0
 27 28  1  0
 28 29  1  0
 28 30  1  0
 28  2  1  0
 26  6  1  0
 25 11  1  0
 19 14  1  0
 25 20  1  0
M  END
>  <Candidate_ID>  (304) 
CAND_R2_304

>  <Candidate_Name>  (304) 
D-AZ-pinacol-boronate

>  <Parent_Seed_ID>  (304) 
TRAIN_042

>  <Parent_Name>  (304) 
D-AZ

>  <Transformation_Code>  (304) 
pinacol_boronate

>  <Design_Family>  (304) 
P-N-B-S

>  <Preparation_Type>  (304) 
Additive

>  <Synthesis_Level>  (304) 
C

>  <Parent_Tanimoto_r3>  (304) 
0.5375

>  <Max_Train_Tanimoto_r3>  (304) 
0.5375

>  <Risk_Flags>  (304) 
large structural change from parent; candidate may be outside strict in-domain threshold; exploratory only; excluded from formal screening

$$$$
CAND_R2_305 | D-AZ-trimethoxysilyl
     RDKit          2D

 28 31  0  0  0  0  0  0  0  0999 V2000
    1.6059  -12.2307    0.0000 C   0  0  0  0  0  0  0  0  0  0  0  0
    0.7671  -10.9872    0.0000 O   0  0  0  0  0  0  0  0  0  0  0  0
    1.4247   -9.6390    0.0000 Si  0  0  0  0  0  4  0  0  0  0  0  0
    0.0765   -8.9814    0.0000 O   0  0  0  0  0  0  0  0  0  0  0  0
   -1.1671   -9.8202    0.0000 C   0  0  0  0  0  0  0  0  0  0  0  0
    2.7729  -10.2965    0.0000 O   0  0  0  0  0  0  0  0  0  0  0  0
    2.8775  -11.7929    0.0000 C   0  0  0  0  0  0  0  0  0  0  0  0
    2.0822   -8.2908    0.0000 C   0  0  0  0  0  0  0  0  0  0  0  0
    3.5594   -8.0303    0.0000 C   0  0  0  0  0  0  0  0  0  0  0  0
    3.7682   -6.5449    0.0000 N   0  0  0  0  0  0  0  0  0  0  0  0
    2.4200   -5.8874    0.0000 C   0  0  0  0  0  0  0  0  0  0  0  0
    2.1595   -4.4101    0.0000 N   0  0  0  0  0  0  0  0  0  0  0  0
    0.7500   -3.8971    0.0000 P   0  0  0  0  0  0  0  0  0  0  0  0
    0.4895   -5.3743    0.0000 O   0  0  0  0  0  0  0  0  0  0  0  0
    1.5000   -2.5981    0.0000 O   0  0  0  0  0  0  0  0  0  0  0  0
    0.7500   -1.2990    0.0000 C   0  0  0  0  0  0  0  0  0  0  0  0
    1.5000    0.0000    0.0000 C   0  0  0  0  0  0  0  0  0  0  0  0
    0.7500    1.2990    0.0000 C   0  0  0  0  0  0  0  0  0  0  0  0
   -0.7500    1.2990    0.0000 C   0  0  0  0  0  0  0  0  0  0  0  0
   -1.5000    0.0000    0.0000 C   0  0  0  0  0  0  0  0  0  0  0  0
   -0.7500   -1.2990    0.0000 C   0  0  0  0  0  0  0  0  0  0  0  0
   -1.5000   -2.5981    0.0000 C   0  0  0  0  0  0  0  0  0  0  0  0
   -3.0000   -2.5981    0.0000 C   0  0  0  0  0  0  0  0  0  0  0  0
   -3.7500   -3.8971    0.0000 C   0  0  0  0  0  0  0  0  0  0  0  0
   -3.0000   -5.1962    0.0000 C   0  0  0  0  0  0  0  0  0  0  0  0
   -1.5000   -5.1962    0.0000 C   0  0  0  0  0  0  0  0  0  0  0  0
   -0.7500   -3.8971    0.0000 C   0  0  0  0  0  0  0  0  0  0  0  0
    1.3780   -6.9664    0.0000 S   0  0  0  0  0  0  0  0  0  0  0  0
  1  2  1  0
  2  3  1  0
  3  4  1  0
  4  5  1  0
  3  6  1  0
  6  7  1  0
  3  8  1  0
  8  9  2  0
  9 10  1  0
 10 11  2  0
 11 12  1  0
 12 13  1  0
 13 14  2  0
 13 15  1  0
 15 16  1  0
 16 17  2  0
 17 18  1  0
 18 19  2  0
 19 20  1  0
 20 21  2  0
 21 22  1  0
 22 23  2  0
 23 24  1  0
 24 25  2  0
 25 26  1  0
 26 27  2  0
 11 28  1  0
 28  8  1  0
 27 13  1  0
 21 16  1  0
 27 22  1  0
M  END
>  <Candidate_ID>  (305) 
CAND_R2_305

>  <Candidate_Name>  (305) 
D-AZ-trimethoxysilyl

>  <Parent_Seed_ID>  (305) 
TRAIN_042

>  <Parent_Name>  (305) 
D-AZ

>  <Transformation_Code>  (305) 
trimethoxysilyl

>  <Design_Family>  (305) 
P-N-Si-S

>  <Preparation_Type>  (305) 
Additive + Secondary Crosslinking

>  <Synthesis_Level>  (305) 
B

>  <Parent_Tanimoto_r3>  (305) 
0.5584415584415584

>  <Max_Train_Tanimoto_r3>  (305) 
0.5584415584415584

>  <Risk_Flags>  (305) 
large structural change from parent; candidate may be outside strict in-domain threshold

$$$$
CAND_R2_306 | D-AZ-triethoxysilyl
     RDKit          2D

 31 34  0  0  0  0  0  0  0  0999 V2000
    0.9484  -13.5789    0.0000 C   0  0  0  0  0  0  0  0  0  0  0  0
    1.6059  -12.2307    0.0000 C   0  0  0  0  0  0  0  0  0  0  0  0
    0.7671  -10.9872    0.0000 O   0  0  0  0  0  0  0  0  0  0  0  0
    1.4247   -9.6390    0.0000 Si  0  0  0  0  0  4  0  0  0  0  0  0
    0.0765   -8.9814    0.0000 O   0  0  0  0  0  0  0  0  0  0  0  0
   -1.1671   -9.8202    0.0000 C   0  0  0  0  0  0  0  0  0  0  0  0
   -2.5153   -9.1627    0.0000 C   0  0  0  0  0  0  0  0  0  0  0  0
    2.7729  -10.2965    0.0000 O   0  0  0  0  0  0  0  0  0  0  0  0
    2.8775  -11.7929    0.0000 C   0  0  0  0  0  0  0  0  0  0  0  0
    4.2257  -12.4504    0.0000 C   0  0  0  0  0  0  0  0  0  0  0  0
    2.0822   -8.2908    0.0000 C   0  0  0  0  0  0  0  0  0  0  0  0
    3.5594   -8.0303    0.0000 C   0  0  0  0  0  0  0  0  0  0  0  0
    3.7682   -6.5449    0.0000 N   0  0  0  0  0  0  0  0  0  0  0  0
    2.4200   -5.8874    0.0000 C   0  0  0  0  0  0  0  0  0  0  0  0
    2.1595   -4.4101    0.0000 N   0  0  0  0  0  0  0  0  0  0  0  0
    0.7500   -3.8971    0.0000 P   0  0  0  0  0  0  0  0  0  0  0  0
    0.4895   -5.3743    0.0000 O   0  0  0  0  0  0  0  0  0  0  0  0
    1.5000   -2.5981    0.0000 O   0  0  0  0  0  0  0  0  0  0  0  0
    0.7500   -1.2990    0.0000 C   0  0  0  0  0  0  0  0  0  0  0  0
    1.5000    0.0000    0.0000 C   0  0  0  0  0  0  0  0  0  0  0  0
    0.7500    1.2990    0.0000 C   0  0  0  0  0  0  0  0  0  0  0  0
   -0.7500    1.2990    0.0000 C   0  0  0  0  0  0  0  0  0  0  0  0
   -1.5000    0.0000    0.0000 C   0  0  0  0  0  0  0  0  0  0  0  0
   -0.7500   -1.2990    0.0000 C   0  0  0  0  0  0  0  0  0  0  0  0
   -1.5000   -2.5981    0.0000 C   0  0  0  0  0  0  0  0  0  0  0  0
   -3.0000   -2.5981    0.0000 C   0  0  0  0  0  0  0  0  0  0  0  0
   -3.7500   -3.8971    0.0000 C   0  0  0  0  0  0  0  0  0  0  0  0
   -3.0000   -5.1962    0.0000 C   0  0  0  0  0  0  0  0  0  0  0  0
   -1.5000   -5.1962    0.0000 C   0  0  0  0  0  0  0  0  0  0  0  0
   -0.7500   -3.8971    0.0000 C   0  0  0  0  0  0  0  0  0  0  0  0
    1.3780   -6.9664    0.0000 S   0  0  0  0  0  0  0  0  0  0  0  0
  1  2  1  0
  2  3  1  0
  3  4  1  0
  4  5  1  0
  5  6  1  0
  6  7  1  0
  4  8  1  0
  8  9  1  0
  9 10  1  0
  4 11  1  0
 11 12  2  0
 12 13  1  0
 13 14  2  0
 14 15  1  0
 15 16  1  0
 16 17  2  0
 16 18  1  0
 18 19  1  0
 19 20  2  0
 20 21  1  0
 21 22  2  0
 22 23  1  0
 23 24  2  0
 24 25  1  0
 25 26  2  0
 26 27  1  0
 27 28  2  0
 28 29  1  0
 29 30  2  0
 14 31  1  0
 31 11  1  0
 30 16  1  0
 24 19  1  0
 30 25  1  0
M  END
>  <Candidate_ID>  (306) 
CAND_R2_306

>  <Candidate_Name>  (306) 
D-AZ-triethoxysilyl

>  <Parent_Seed_ID>  (306) 
TRAIN_042

>  <Parent_Name>  (306) 
D-AZ

>  <Transformation_Code>  (306) 
triethoxysilyl

>  <Design_Family>  (306) 
P-N-Si-S

>  <Preparation_Type>  (306) 
Additive + Secondary Crosslinking

>  <Synthesis_Level>  (306) 
C

>  <Parent_Tanimoto_r3>  (306) 
0.5308641975308642

>  <Max_Train_Tanimoto_r3>  (306) 
0.5308641975308642

>  <Risk_Flags>  (306) 
large structural change from parent; candidate may be outside strict in-domain threshold; exploratory only; excluded from formal screening

$$$$
CAND_R2_307 | D-AZ-disiloxane
     RDKit          2D

 29 32  0  0  0  0  0  0  0  0999 V2000
    0.3624  -13.0695    0.0000 C   0  0  0  0  0  0  0  0  0  0  0  0
    1.6059  -12.2307    0.0000 Si  0  0  0  0  0  4  0  0  0  0  0  0
    2.8495  -11.3919    0.0000 C   0  0  0  0  0  0  0  0  0  0  0  0
    2.4447  -13.4743    0.0000 C   0  0  0  0  0  0  0  0  0  0  0  0
    0.7671  -10.9872    0.0000 O   0  0  0  0  0  0  0  0  0  0  0  0
    1.4247   -9.6390    0.0000 Si  0  0  0  0  0  4  0  0  0  0  0  0
    2.7729  -10.2965    0.0000 C   0  0  0  0  0  0  0  0  0  0  0  0
    0.0765   -8.9814    0.0000 C   0  0  0  0  0  0  0  0  0  0  0  0
    2.0822   -8.2908    0.0000 C   0  0  0  0  0  0  0  0  0  0  0  0
    3.5594   -8.0303    0.0000 C   0  0  0  0  0  0  0  0  0  0  0  0
    3.7682   -6.5449    0.0000 N   0  0  0  0  0  0  0  0  0  0  0  0
    2.4200   -5.8874    0.0000 C   0  0  0  0  0  0  0  0  0  0  0  0
    2.1595   -4.4101    0.0000 N   0  0  0  0  0  0  0  0  0  0  0  0
    0.7500   -3.8971    0.0000 P   0  0  0  0  0  0  0  0  0  0  0  0
    0.4895   -5.3743    0.0000 O   0  0  0  0  0  0  0  0  0  0  0  0
    1.5000   -2.5981    0.0000 O   0  0  0  0  0  0  0  0  0  0  0  0
    0.7500   -1.2990    0.0000 C   0  0  0  0  0  0  0  0  0  0  0  0
    1.5000    0.0000    0.0000 C   0  0  0  0  0  0  0  0  0  0  0  0
    0.7500    1.2990    0.0000 C   0  0  0  0  0  0  0  0  0  0  0  0
   -0.7500    1.2990    0.0000 C   0  0  0  0  0  0  0  0  0  0  0  0
   -1.5000    0.0000    0.0000 C   0  0  0  0  0  0  0  0  0  0  0  0
   -0.7500   -1.2990    0.0000 C   0  0  0  0  0  0  0  0  0  0  0  0
   -1.5000   -2.5981    0.0000 C   0  0  0  0  0  0  0  0  0  0  0  0
   -3.0000   -2.5981    0.0000 C   0  0  0  0  0  0  0  0  0  0  0  0
   -3.7500   -3.8971    0.0000 C   0  0  0  0  0  0  0  0  0  0  0  0
   -3.0000   -5.1962    0.0000 C   0  0  0  0  0  0  0  0  0  0  0  0
   -1.5000   -5.1962    0.0000 C   0  0  0  0  0  0  0  0  0  0  0  0
   -0.7500   -3.8971    0.0000 C   0  0  0  0  0  0  0  0  0  0  0  0
    1.3780   -6.9664    0.0000 S   0  0  0  0  0  0  0  0  0  0  0  0
  1  2  1  0
  2  3  1  0
  2  4  1  0
  2  5  1  0
  5  6  1  0
  6  7  1  0
  6  8  1  0
  6  9  1  0
  9 10  2  0
 10 11  1  0
 11 12  2  0
 12 13  1  0
 13 14  1  0
 14 15  2  0
 14 16  1  0
 16 17  1  0
 17 18  2  0
 18 19  1  0
 19 20  2  0
 20 21  1  0
 21 22  2  0
 22 23  1  0
 23 24  2  0
 24 25  1  0
 25 26  2  0
 26 27  1  0
 27 28  2  0
 12 29  1  0
 29  9  1  0
 28 14  1  0
 22 17  1  0
 28 23  1  0
M  END
>  <Candidate_ID>  (307) 
CAND_R2_307

>  <Candidate_Name>  (307) 
D-AZ-disiloxane

>  <Parent_Seed_ID>  (307) 
TRAIN_042

>  <Parent_Name>  (307) 
D-AZ

>  <Transformation_Code>  (307) 
disiloxane

>  <Design_Family>  (307) 
P-N-Si-S

>  <Preparation_Type>  (307) 
Additive

>  <Synthesis_Level>  (307) 
B

>  <Parent_Tanimoto_r3>  (307) 
0.5512820512820513

>  <Max_Train_Tanimoto_r3>  (307) 
0.5512820512820513

>  <Risk_Flags>  (307) 
large structural change from parent; candidate may be outside strict in-domain threshold

$$$$
CAND_R2_308 | D-AZ-glycidyloxy
     RDKit          2D

 26 30  0  0  0  0  0  0  0  0999 V2000
    0.4895   -5.3743    0.0000 O   0  0  0  0  0  0  0  0  0  0  0  0
    0.7500   -3.8971    0.0000 P   0  0  0  0  0  0  0  0  0  0  0  0
    2.1595   -4.4101    0.0000 N   0  0  0  0  0  0  0  0  0  0  0  0
    2.4200   -5.8874    0.0000 C   0  0  0  0  0  0  0  0  0  0  0  0
    3.7682   -6.5449    0.0000 N   0  0  0  0  0  0  0  0  0  0  0  0
    3.5594   -8.0303    0.0000 C   0  0  0  0  0  0  0  0  0  0  0  0
    2.0822   -8.2908    0.0000 C   0  0  0  0  0  0  0  0  0  0  0  0
    1.4247   -9.6390    0.0000 O   0  0  0  0  0  0  0  0  0  0  0  0
   -0.0717   -9.7436    0.0000 C   0  0  0  0  0  0  0  0  0  0  0  0
   -0.7292  -11.0918    0.0000 C   0  0  0  0  0  0  0  0  0  0  0  0
   -0.6246  -12.5882    0.0000 C   0  0  0  0  0  0  0  0  0  0  0  0
   -1.9728  -11.9306    0.0000 O   0  0  0  0  0  0  0  0  0  0  0  0
    1.3780   -6.9664    0.0000 S   0  0  0  0  0  0  0  0  0  0  0  0
    1.5000   -2.5981    0.0000 O   0  0  0  0  0  0  0  0  0  0  0  0
    0.7500   -1.2990    0.0000 C   0  0  0  0  0  0  0  0  0  0  0  0
    1.5000    0.0000    0.0000 C   0  0  0  0  0  0  0  0  0  0  0  0
    0.7500    1.2990    0.0000 C   0  0  0  0  0  0  0  0  0  0  0  0
   -0.7500    1.2990    0.0000 C   0  0  0  0  0  0  0  0  0  0  0  0
   -1.5000    0.0000    0.0000 C   0  0  0  0  0  0  0  0  0  0  0  0
   -0.7500   -1.2990    0.0000 C   0  0  0  0  0  0  0  0  0  0  0  0
   -1.5000   -2.5981    0.0000 C   0  0  0  0  0  0  0  0  0  0  0  0
   -3.0000   -2.5981    0.0000 C   0  0  0  0  0  0  0  0  0  0  0  0
   -3.7500   -3.8971    0.0000 C   0  0  0  0  0  0  0  0  0  0  0  0
   -3.0000   -5.1962    0.0000 C   0  0  0  0  0  0  0  0  0  0  0  0
   -1.5000   -5.1962    0.0000 C   0  0  0  0  0  0  0  0  0  0  0  0
   -0.7500   -3.8971    0.0000 C   0  0  0  0  0  0  0  0  0  0  0  0
  1  2  2  0
  2  3  1  0
  3  4  1  0
  4  5  2  0
  5  6  1  0
  6  7  2  0
  7  8  1  0
  8  9  1  0
  9 10  1  0
 10 11  1  0
 11 12  1  0
  7 13  1  0
  2 14  1  0
 14 15  1  0
 15 16  2  0
 16 17  1  0
 17 18  2  0
 18 19  1  0
 19 20  2  0
 20 21  1  0
 21 22  2  0
 22 23  1  0
 23 24  2  0
 24 25  1  0
 25 26  2  0
 26  2  1  0
 13  4  1  0
 20 15  1  0
 26 21  1  0
 12 10  1  0
M  END
>  <Candidate_ID>  (308) 
CAND_R2_308

>  <Candidate_Name>  (308) 
D-AZ-glycidyloxy

>  <Parent_Seed_ID>  (308) 
TRAIN_042

>  <Parent_Name>  (308) 
D-AZ

>  <Transformation_Code>  (308) 
glycidyloxy

>  <Design_Family>  (308) 
P-N-S

>  <Preparation_Type>  (308) 
Co-curing

>  <Synthesis_Level>  (308) 
C

>  <Parent_Tanimoto_r3>  (308) 
0.5119047619047619

>  <Max_Train_Tanimoto_r3>  (308) 
0.5119047619047619

>  <Risk_Flags>  (308) 
large structural change from parent; candidate may be outside strict in-domain threshold; exploratory only; excluded from formal screening

$$$$
CAND_R2_309 | D-AZ-diaminotriazine
     RDKit          2D

 29 33  0  0  0  0  0  0  0  0999 V2000
    8.6012   -9.2874    0.0000 N   0  0  0  0  0  0  0  0  0  0  0  0
    7.1594   -9.7008    0.0000 C   0  0  0  0  0  0  0  0  0  0  0  0
    6.7965  -11.1563    0.0000 N   0  0  0  0  0  0  0  0  0  0  0  0
    5.3546  -11.5697    0.0000 C   0  0  0  0  0  0  0  0  0  0  0  0
    4.9917  -13.0252    0.0000 N   0  0  0  0  0  0  0  0  0  0  0  0
    4.2756  -10.5277    0.0000 N   0  0  0  0  0  0  0  0  0  0  0  0
    4.6385   -9.0723    0.0000 C   0  0  0  0  0  0  0  0  0  0  0  0
    3.5594   -8.0303    0.0000 C   0  0  0  0  0  0  0  0  0  0  0  0
    2.0822   -8.2908    0.0000 C   0  0  0  0  0  0  0  0  0  0  0  0
    1.3780   -6.9664    0.0000 N   0  0  0  0  0  0  0  0  0  0  0  0
    2.4200   -5.8874    0.0000 C   0  0  0  0  0  0  0  0  0  0  0  0
    2.1595   -4.4101    0.0000 N   0  0  0  0  0  0  0  0  0  0  0  0
    0.7500   -3.8971    0.0000 P   0  0  0  0  0  0  0  0  0  0  0  0
    0.4895   -5.3743    0.0000 O   0  0  0  0  0  0  0  0  0  0  0  0
    1.5000   -2.5981    0.0000 O   0  0  0  0  0  0  0  0  0  0  0  0
    0.7500   -1.2990    0.0000 C   0  0  0  0  0  0  0  0  0  0  0  0
    1.5000    0.0000    0.0000 C   0  0  0  0  0  0  0  0  0  0  0  0
    0.7500    1.2990    0.0000 C   0  0  0  0  0  0  0  0  0  0  0  0
   -0.7500    1.2990    0.0000 C   0  0  0  0  0  0  0  0  0  0  0  0
   -1.5000    0.0000    0.0000 C   0  0  0  0  0  0  0  0  0  0  0  0
   -0.7500   -1.2990    0.0000 C   0  0  0  0  0  0  0  0  0  0  0  0
   -1.5000   -2.5981    0.0000 C   0  0  0  0  0  0  0  0  0  0  0  0
   -3.0000   -2.5981    0.0000 C   0  0  0  0  0  0  0  0  0  0  0  0
   -3.7500   -3.8971    0.0000 C   0  0  0  0  0  0  0  0  0  0  0  0
   -3.0000   -5.1962    0.0000 C   0  0  0  0  0  0  0  0  0  0  0  0
   -1.5000   -5.1962    0.0000 C   0  0  0  0  0  0  0  0  0  0  0  0
   -0.7500   -3.8971    0.0000 C   0  0  0  0  0  0  0  0  0  0  0  0
    3.7682   -6.5449    0.0000 S   0  0  0  0  0  0  0  0  0  0  0  0
    6.0803   -8.6588    0.0000 N   0  0  0  0  0  0  0  0  0  0  0  0
  1  2  1  0
  2  3  2  0
  3  4  1  0
  4  5  1  0
  4  6  2  0
  6  7  1  0
  7  8  1  0
  8  9  2  0
  9 10  1  0
 10 11  2  0
 11 12  1  0
 12 13  1  0
 13 14  2  0
 13 15  1  0
 15 16  1  0
 16 17  2  0
 17 18  1  0
 18 19  2  0
 19 20  1  0
 20 21  2  0
 21 22  1  0
 22 23  2  0
 23 24  1  0
 24 25  2  0
 25 26  1  0
 26 27  2  0
 11 28  1  0
  7 29  2  0
 29  2  1  0
 28  8  1  0
 27 13  1  0
 21 16  1  0
 27 22  1  0
M  END
>  <Candidate_ID>  (309) 
CAND_R2_309

>  <Candidate_Name>  (309) 
D-AZ-diaminotriazine

>  <Parent_Seed_ID>  (309) 
TRAIN_042

>  <Parent_Name>  (309) 
D-AZ

>  <Transformation_Code>  (309) 
diaminotriazine

>  <Design_Family>  (309) 
P-N-S

>  <Preparation_Type>  (309) 
Co-curing

>  <Synthesis_Level>  (309) 
C

>  <Parent_Tanimoto_r3>  (309) 
0.5375

>  <Max_Train_Tanimoto_r3>  (309) 
0.5375

>  <Risk_Flags>  (309) 
large structural change from parent; candidate may be outside strict in-domain threshold; exploratory only; excluded from formal screening

$$$$
CAND_R2_310 | D-AZ-piperazine
     RDKit          2D

 27 31  0  0  0  0  0  0  0  0999 V2000
    0.4895   -5.3743    0.0000 O   0  0  0  0  0  0  0  0  0  0  0  0
    0.7500   -3.8971    0.0000 P   0  0  0  0  0  0  0  0  0  0  0  0
    2.1595   -4.4101    0.0000 N   0  0  0  0  0  0  0  0  0  0  0  0
    2.4200   -5.8874    0.0000 C   0  0  0  0  0  0  0  0  0  0  0  0
    3.7682   -6.5449    0.0000 N   0  0  0  0  0  0  0  0  0  0  0  0
    3.5594   -8.0303    0.0000 C   0  0  0  0  0  0  0  0  0  0  0  0
    2.0822   -8.2908    0.0000 C   0  0  0  0  0  0  0  0  0  0  0  0
    1.4247   -9.6390    0.0000 N   0  0  0  0  0  0  0  0  0  0  0  0
   -0.0717   -9.7436    0.0000 C   0  0  0  0  0  0  0  0  0  0  0  0
   -0.7292  -11.0918    0.0000 C   0  0  0  0  0  0  0  0  0  0  0  0
    0.1096  -12.3354    0.0000 N   0  0  0  0  0  0  0  0  0  0  0  0
    1.6059  -12.2307    0.0000 C   0  0  0  0  0  0  0  0  0  0  0  0
    2.2635  -10.8825    0.0000 C   0  0  0  0  0  0  0  0  0  0  0  0
    1.3780   -6.9664    0.0000 S   0  0  0  0  0  0  0  0  0  0  0  0
    1.5000   -2.5981    0.0000 O   0  0  0  0  0  0  0  0  0  0  0  0
    0.7500   -1.2990    0.0000 C   0  0  0  0  0  0  0  0  0  0  0  0
    1.5000    0.0000    0.0000 C   0  0  0  0  0  0  0  0  0  0  0  0
    0.7500    1.2990    0.0000 C   0  0  0  0  0  0  0  0  0  0  0  0
   -0.7500    1.2990    0.0000 C   0  0  0  0  0  0  0  0  0  0  0  0
   -1.5000    0.0000    0.0000 C   0  0  0  0  0  0  0  0  0  0  0  0
   -0.7500   -1.2990    0.0000 C   0  0  0  0  0  0  0  0  0  0  0  0
   -1.5000   -2.5981    0.0000 C   0  0  0  0  0  0  0  0  0  0  0  0
   -3.0000   -2.5981    0.0000 C   0  0  0  0  0  0  0  0  0  0  0  0
   -3.7500   -3.8971    0.0000 C   0  0  0  0  0  0  0  0  0  0  0  0
   -3.0000   -5.1962    0.0000 C   0  0  0  0  0  0  0  0  0  0  0  0
   -1.5000   -5.1962    0.0000 C   0  0  0  0  0  0  0  0  0  0  0  0
   -0.7500   -3.8971    0.0000 C   0  0  0  0  0  0  0  0  0  0  0  0
  1  2  2  0
  2  3  1  0
  3  4  1  0
  4  5  2  0
  5  6  1  0
  6  7  2  0
  7  8  1  0
  8  9  1  0
  9 10  1  0
 10 11  1  0
 11 12  1  0
 12 13  1  0
  7 14  1  0
  2 15  1  0
 15 16  1  0
 16 17  2  0
 17 18  1  0
 18 19  2  0
 19 20  1  0
 20 21  2  0
 21 22  1  0
 22 23  2  0
 23 24  1  0
 24 25  2  0
 25 26  1  0
 26 27  2  0
 27  2  1  0
 14  4  1  0
 21 16  1  0
 27 22  1  0
 13  8  1  0
M  END
>  <Candidate_ID>  (310) 
CAND_R2_310

>  <Candidate_Name>  (310) 
D-AZ-piperazine

>  <Parent_Seed_ID>  (310) 
TRAIN_042

>  <Parent_Name>  (310) 
D-AZ

>  <Transformation_Code>  (310) 
piperazine

>  <Design_Family>  (310) 
P-N-S

>  <Preparation_Type>  (310) 
Co-curing

>  <Synthesis_Level>  (310) 
C

>  <Parent_Tanimoto_r3>  (310) 
0.5180722891566265

>  <Max_Train_Tanimoto_r3>  (310) 
0.5180722891566265

>  <Risk_Flags>  (310) 
large structural change from parent; candidate may be outside strict in-domain threshold; exploratory only; excluded from formal screening

$$$$
CAND_R2_311 | D-AZ-benzamide-linker
     RDKit          2D

 30 34  0  0  0  0  0  0  0  0999 V2000
    2.8337  -10.9412    0.0000 O   0  0  0  0  0  0  0  0  0  0  0  0
    4.2756  -10.5277    0.0000 C   0  0  0  0  0  0  0  0  0  0  0  0
    4.6385   -9.0723    0.0000 N   0  0  0  0  0  0  0  0  0  0  0  0
    3.5594   -8.0303    0.0000 C   0  0  0  0  0  0  0  0  0  0  0  0
    2.0822   -8.2908    0.0000 C   0  0  0  0  0  0  0  0  0  0  0  0
    1.3780   -6.9664    0.0000 N   0  0  0  0  0  0  0  0  0  0  0  0
    2.4200   -5.8874    0.0000 C   0  0  0  0  0  0  0  0  0  0  0  0
    2.1595   -4.4101    0.0000 N   0  0  0  0  0  0  0  0  0  0  0  0
    0.7500   -3.8971    0.0000 P   0  0  0  0  0  0  0  0  0  0  0  0
    0.4895   -5.3743    0.0000 O   0  0  0  0  0  0  0  0  0  0  0  0
    1.5000   -2.5981    0.0000 O   0  0  0  0  0  0  0  0  0  0  0  0
    0.7500   -1.2990    0.0000 C   0  0  0  0  0  0  0  0  0  0  0  0
    1.5000    0.0000    0.0000 C   0  0  0  0  0  0  0  0  0  0  0  0
    0.7500    1.2990    0.0000 C   0  0  0  0  0  0  0  0  0  0  0  0
   -0.7500    1.2990    0.0000 C   0  0  0  0  0  0  0  0  0  0  0  0
   -1.5000    0.0000    0.0000 C   0  0  0  0  0  0  0  0  0  0  0  0
   -0.7500   -1.2990    0.0000 C   0  0  0  0  0  0  0  0  0  0  0  0
   -1.5000   -2.5981    0.0000 C   0  0  0  0  0  0  0  0  0  0  0  0
   -3.0000   -2.5981    0.0000 C   0  0  0  0  0  0  0  0  0  0  0  0
   -3.7500   -3.8971    0.0000 C   0  0  0  0  0  0  0  0  0  0  0  0
   -3.0000   -5.1962    0.0000 C   0  0  0  0  0  0  0  0  0  0  0  0
   -1.5000   -5.1962    0.0000 C   0  0  0  0  0  0  0  0  0  0  0  0
   -0.7500   -3.8971    0.0000 C   0  0  0  0  0  0  0  0  0  0  0  0
    3.7682   -6.5449    0.0000 S   0  0  0  0  0  0  0  0  0  0  0  0
    5.3546  -11.5697    0.0000 C   0  0  0  0  0  0  0  0  0  0  0  0
    4.9917  -13.0252    0.0000 C   0  0  0  0  0  0  0  0  0  0  0  0
    6.0707  -14.0672    0.0000 C   0  0  0  0  0  0  0  0  0  0  0  0
    7.5126  -13.6537    0.0000 C   0  0  0  0  0  0  0  0  0  0  0  0
    7.8755  -12.1983    0.0000 C   0  0  0  0  0  0  0  0  0  0  0  0
    6.7965  -11.1563    0.0000 C   0  0  0  0  0  0  0  0  0  0  0  0
  1  2  2  0
  2  3  1  0
  3  4  1  0
  4  5  2  0
  5  6  1  0
  6  7  2  0
  7  8  1  0
  8  9  1  0
  9 10  2  0
  9 11  1  0
 11 12  1  0
 12 13  2  0
 13 14  1  0
 14 15  2  0
 15 16  1  0
 16 17  2  0
 17 18  1  0
 18 19  2  0
 19 20  1  0
 20 21  2  0
 21 22  1  0
 22 23  2  0
  7 24  1  0
  2 25  1  0
 25 26  2  0
 26 27  1  0
 27 28  2  0
 28 29  1  0
 29 30  2  0
 24  4  1  0
 30 25  1  0
 23  9  1  0
 17 12  1  0
 23 18  1  0
M  END
>  <Candidate_ID>  (311) 
CAND_R2_311

>  <Candidate_Name>  (311) 
D-AZ-benzamide-linker

>  <Parent_Seed_ID>  (311) 
TRAIN_042

>  <Parent_Name>  (311) 
D-AZ

>  <Transformation_Code>  (311) 
benzamide_linker

>  <Design_Family>  (311) 
P-N-S

>  <Preparation_Type>  (311) 
Additive

>  <Synthesis_Level>  (311) 
C

>  <Parent_Tanimoto_r3>  (311) 
0.5119047619047619

>  <Max_Train_Tanimoto_r3>  (311) 
0.5119047619047619

>  <Risk_Flags>  (311) 
large structural change from parent; candidate may be outside strict in-domain threshold; exploratory only; excluded from formal screening

$$$$
CAND_R2_312 | D-AZ-phenyl
     RDKit          2D

 27 31  0  0  0  0  0  0  0  0999 V2000
    0.4895   -5.3743    0.0000 O   0  0  0  0  0  0  0  0  0  0  0  0
    0.7500   -3.8971    0.0000 P   0  0  0  0  0  0  0  0  0  0  0  0
    2.1595   -4.4101    0.0000 N   0  0  0  0  0  0  0  0  0  0  0  0
    2.4200   -5.8874    0.0000 C   0  0  0  0  0  0  0  0  0  0  0  0
    3.7682   -6.5449    0.0000 N   0  0  0  0  0  0  0  0  0  0  0  0
    3.5594   -8.0303    0.0000 C   0  0  0  0  0  0  0  0  0  0  0  0
    2.0822   -8.2908    0.0000 C   0  0  0  0  0  0  0  0  0  0  0  0
    1.4247   -9.6390    0.0000 C   0  0  0  0  0  0  0  0  0  0  0  0
   -0.0717   -9.7436    0.0000 C   0  0  0  0  0  0  0  0  0  0  0  0
   -0.7292  -11.0918    0.0000 C   0  0  0  0  0  0  0  0  0  0  0  0
    0.1096  -12.3354    0.0000 C   0  0  0  0  0  0  0  0  0  0  0  0
    1.6059  -12.2307    0.0000 C   0  0  0  0  0  0  0  0  0  0  0  0
    2.2635  -10.8825    0.0000 C   0  0  0  0  0  0  0  0  0  0  0  0
    1.3780   -6.9664    0.0000 S   0  0  0  0  0  0  0  0  0  0  0  0
    1.5000   -2.5981    0.0000 O   0  0  0  0  0  0  0  0  0  0  0  0
    0.7500   -1.2990    0.0000 C   0  0  0  0  0  0  0  0  0  0  0  0
    1.5000    0.0000    0.0000 C   0  0  0  0  0  0  0  0  0  0  0  0
    0.7500    1.2990    0.0000 C   0  0  0  0  0  0  0  0  0  0  0  0
   -0.7500    1.2990    0.0000 C   0  0  0  0  0  0  0  0  0  0  0  0
   -1.5000    0.0000    0.0000 C   0  0  0  0  0  0  0  0  0  0  0  0
   -0.7500   -1.2990    0.0000 C   0  0  0  0  0  0  0  0  0  0  0  0
   -1.5000   -2.5981    0.0000 C   0  0  0  0  0  0  0  0  0  0  0  0
   -3.0000   -2.5981    0.0000 C   0  0  0  0  0  0  0  0  0  0  0  0
   -3.7500   -3.8971    0.0000 C   0  0  0  0  0  0  0  0  0  0  0  0
   -3.0000   -5.1962    0.0000 C   0  0  0  0  0  0  0  0  0  0  0  0
   -1.5000   -5.1962    0.0000 C   0  0  0  0  0  0  0  0  0  0  0  0
   -0.7500   -3.8971    0.0000 C   0  0  0  0  0  0  0  0  0  0  0  0
  1  2  2  0
  2  3  1  0
  3  4  1  0
  4  5  2  0
  5  6  1  0
  6  7  2  0
  7  8  1  0
  8  9  2  0
  9 10  1  0
 10 11  2  0
 11 12  1  0
 12 13  2  0
  7 14  1  0
  2 15  1  0
 15 16  1  0
 16 17  2  0
 17 18  1  0
 18 19  2  0
 19 20  1  0
 20 21  2  0
 21 22  1  0
 22 23  2  0
 23 24  1  0
 24 25  2  0
 25 26  1  0
 26 27  2  0
 27  2  1  0
 14  4  1  0
 21 16  1  0
 27 22  1  0
 13  8  1  0
M  END
>  <Candidate_ID>  (312) 
CAND_R2_312

>  <Candidate_Name>  (312) 
D-AZ-phenyl

>  <Parent_Seed_ID>  (312) 
TRAIN_042

>  <Parent_Name>  (312) 
D-AZ

>  <Transformation_Code>  (312) 
phenyl

>  <Design_Family>  (312) 
P-N-S

>  <Preparation_Type>  (312) 
Additive

>  <Synthesis_Level>  (312) 
B

>  <Parent_Tanimoto_r3>  (312) 
0.5657894736842105

>  <Max_Train_Tanimoto_r3>  (312) 
0.5657894736842105

>  <Risk_Flags>  (312) 
large structural change from parent; candidate may be outside strict in-domain threshold

$$$$
CAND_R2_313 | D-AZ-biphenyl
     RDKit          2D

 33 38  0  0  0  0  0  0  0  0999 V2000
    0.4895   -5.3743    0.0000 O   0  0  0  0  0  0  0  0  0  0  0  0
    0.7500   -3.8971    0.0000 P   0  0  0  0  0  0  0  0  0  0  0  0
    2.1595   -4.4101    0.0000 N   0  0  0  0  0  0  0  0  0  0  0  0
    2.4200   -5.8874    0.0000 C   0  0  0  0  0  0  0  0  0  0  0  0
    3.7682   -6.5449    0.0000 N   0  0  0  0  0  0  0  0  0  0  0  0
    3.5594   -8.0303    0.0000 C   0  0  0  0  0  0  0  0  0  0  0  0
    2.0822   -8.2908    0.0000 C   0  0  0  0  0  0  0  0  0  0  0  0
    1.4247   -9.6390    0.0000 C   0  0  0  0  0  0  0  0  0  0  0  0
   -0.0717   -9.7436    0.0000 C   0  0  0  0  0  0  0  0  0  0  0  0
   -0.7292  -11.0918    0.0000 C   0  0  0  0  0  0  0  0  0  0  0  0
    0.1096  -12.3354    0.0000 C   0  0  0  0  0  0  0  0  0  0  0  0
   -0.5480  -13.6836    0.0000 C   0  0  0  0  0  0  0  0  0  0  0  0
   -2.0443  -13.7882    0.0000 C   0  0  0  0  0  0  0  0  0  0  0  0
   -2.7019  -15.1364    0.0000 C   0  0  0  0  0  0  0  0  0  0  0  0
   -1.8631  -16.3799    0.0000 C   0  0  0  0  0  0  0  0  0  0  0  0
   -0.3668  -16.2753    0.0000 C   0  0  0  0  0  0  0  0  0  0  0  0
    0.2908  -14.9271    0.0000 C   0  0  0  0  0  0  0  0  0  0  0  0
    1.6059  -12.2307    0.0000 C   0  0  0  0  0  0  0  0  0  0  0  0
    2.2635  -10.8825    0.0000 C   0  0  0  0  0  0  0  0  0  0  0  0
    1.3780   -6.9664    0.0000 S   0  0  0  0  0  0  0  0  0  0  0  0
    1.5000   -2.5981    0.0000 O   0  0  0  0  0  0  0  0  0  0  0  0
    0.7500   -1.2990    0.0000 C   0  0  0  0  0  0  0  0  0  0  0  0
    1.5000    0.0000    0.0000 C   0  0  0  0  0  0  0  0  0  0  0  0
    0.7500    1.2990    0.0000 C   0  0  0  0  0  0  0  0  0  0  0  0
   -0.7500    1.2990    0.0000 C   0  0  0  0  0  0  0  0  0  0  0  0
   -1.5000    0.0000    0.0000 C   0  0  0  0  0  0  0  0  0  0  0  0
   -0.7500   -1.2990    0.0000 C   0  0  0  0  0  0  0  0  0  0  0  0
   -1.5000   -2.5981    0.0000 C   0  0  0  0  0  0  0  0  0  0  0  0
   -3.0000   -2.5981    0.0000 C   0  0  0  0  0  0  0  0  0  0  0  0
   -3.7500   -3.8971    0.0000 C   0  0  0  0  0  0  0  0  0  0  0  0
   -3.0000   -5.1962    0.0000 C   0  0  0  0  0  0  0  0  0  0  0  0
   -1.5000   -5.1962    0.0000 C   0  0  0  0  0  0  0  0  0  0  0  0
   -0.7500   -3.8971    0.0000 C   0  0  0  0  0  0  0  0  0  0  0  0
  1  2  2  0
  2  3  1  0
  3  4  1  0
  4  5  2  0
  5  6  1  0
  6  7  2  0
  7  8  1  0
  8  9  2  0
  9 10  1  0
 10 11  2  0
 11 12  1  0
 12 13  2  0
 13 14  1  0
 14 15  2  0
 15 16  1  0
 16 17  2  0
 11 18  1  0
 18 19  2  0
  7 20  1  0
  2 21  1  0
 21 22  1  0
 22 23  2  0
 23 24  1  0
 24 25  2  0
 25 26  1  0
 26 27  2  0
 27 28  1  0
 28 29  2  0
 29 30  1  0
 30 31  2  0
 31 32  1  0
 32 33  2  0
 33  2  1  0
 20  4  1  0
 27 22  1  0
 33 28  1  0
 19  8  1  0
 17 12  1  0
M  END
>  <Candidate_ID>  (313) 
CAND_R2_313

>  <Candidate_Name>  (313) 
D-AZ-biphenyl

>  <Parent_Seed_ID>  (313) 
TRAIN_042

>  <Parent_Name>  (313) 
D-AZ

>  <Transformation_Code>  (313) 
biphenyl

>  <Design_Family>  (313) 
P-N-S

>  <Preparation_Type>  (313) 
Additive

>  <Synthesis_Level>  (313) 
C

>  <Parent_Tanimoto_r3>  (313) 
0.524390243902439

>  <Max_Train_Tanimoto_r3>  (313) 
0.524390243902439

>  <Risk_Flags>  (313) 
large structural change from parent; candidate may be outside strict in-domain threshold; exploratory only; excluded from formal screening

$$$$
CAND_R2_314 | D-AZ-NH-methyl
     RDKit          2D

 22 25  0  0  0  0  0  0  0  0999 V2000
    2.4200   -5.8874    0.0000 C   0  0  0  0  0  0  0  0  0  0  0  0
    2.1595   -4.4101    0.0000 N   0  0  0  0  0  0  0  0  0  0  0  0
    3.3086   -3.4460    0.0000 C   0  0  0  0  0  0  0  0  0  0  0  0
    3.2040   -1.9496    0.0000 N   0  0  0  0  0  0  0  0  0  0  0  0
    4.5947   -1.3877    0.0000 C   0  0  0  0  0  0  0  0  0  0  0  0
    5.5589   -2.5368    0.0000 C   0  0  0  0  0  0  0  0  0  0  0  0
    4.7640   -3.8088    0.0000 S   0  0  0  0  0  0  0  0  0  0  0  0
    0.7500   -3.8971    0.0000 P   0  0  0  0  0  0  0  0  0  0  0  0
    0.4895   -5.3743    0.0000 O   0  0  0  0  0  0  0  0  0  0  0  0
    1.5000   -2.5981    0.0000 O   0  0  0  0  0  0  0  0  0  0  0  0
    0.7500   -1.2990    0.0000 C   0  0  0  0  0  0  0  0  0  0  0  0
    1.5000    0.0000    0.0000 C   0  0  0  0  0  0  0  0  0  0  0  0
    0.7500    1.2990    0.0000 C   0  0  0  0  0  0  0  0  0  0  0  0
   -0.7500    1.2990    0.0000 C   0  0  0  0  0  0  0  0  0  0  0  0
   -1.5000    0.0000    0.0000 C   0  0  0  0  0  0  0  0  0  0  0  0
   -0.7500   -1.2990    0.0000 C   0  0  0  0  0  0  0  0  0  0  0  0
   -1.5000   -2.5981    0.0000 C   0  0  0  0  0  0  0  0  0  0  0  0
   -3.0000   -2.5981    0.0000 C   0  0  0  0  0  0  0  0  0  0  0  0
   -3.7500   -3.8971    0.0000 C   0  0  0  0  0  0  0  0  0  0  0  0
   -3.0000   -5.1962    0.0000 C   0  0  0  0  0  0  0  0  0  0  0  0
   -1.5000   -5.1962    0.0000 C   0  0  0  0  0  0  0  0  0  0  0  0
   -0.7500   -3.8971    0.0000 C   0  0  0  0  0  0  0  0  0  0  0  0
  1  2  1  0
  2  3  1  0
  3  4  2  0
  4  5  1  0
  5  6  2  0
  6  7  1  0
  2  8  1  0
  8  9  2  0
  8 10  1  0
 10 11  1  0
 11 12  2  0
 12 13  1  0
 13 14  2  0
 14 15  1  0
 15 16  2  0
 16 17  1  0
 17 18  2  0
 18 19  1  0
 19 20  2  0
 20 21  1  0
 21 22  2  0
  7  3  1  0
 22  8  1  0
 16 11  1  0
 22 17  1  0
M  END
>  <Candidate_ID>  (314) 
CAND_R2_314

>  <Candidate_Name>  (314) 
D-AZ-NH-methyl

>  <Parent_Seed_ID>  (314) 
TRAIN_042

>  <Parent_Name>  (314) 
D-AZ

>  <Transformation_Code>  (314) 
NH_methyl

>  <Design_Family>  (314) 
P-N-S

>  <Preparation_Type>  (314) 
Additive

>  <Synthesis_Level>  (314) 
C

>  <Parent_Tanimoto_r3>  (314) 
0.4358974358974359

>  <Max_Train_Tanimoto_r3>  (314) 
0.4358974358974359

>  <Risk_Flags>  (314) 
large structural change from parent; candidate may be outside strict in-domain threshold; exploratory only; excluded from formal screening

$$$$
CAND_R2_315 | D-AZ-NH-hydroxyethyl
     RDKit          2D

 24 27  0  0  0  0  0  0  0  0999 V2000
    0.4895   -5.3743    0.0000 O   0  0  0  0  0  0  0  0  0  0  0  0
    0.7500   -3.8971    0.0000 P   0  0  0  0  0  0  0  0  0  0  0  0
    2.1595   -4.4101    0.0000 N   0  0  0  0  0  0  0  0  0  0  0  0
    2.4200   -5.8874    0.0000 C   0  0  0  0  0  0  0  0  0  0  0  0
    3.8296   -6.4004    0.0000 C   0  0  0  0  0  0  0  0  0  0  0  0
    4.0900   -7.8776    0.0000 O   0  0  0  0  0  0  0  0  0  0  0  0
    3.3086   -3.4460    0.0000 C   0  0  0  0  0  0  0  0  0  0  0  0
    3.2040   -1.9496    0.0000 N   0  0  0  0  0  0  0  0  0  0  0  0
    4.5947   -1.3877    0.0000 C   0  0  0  0  0  0  0  0  0  0  0  0
    5.5589   -2.5368    0.0000 C   0  0  0  0  0  0  0  0  0  0  0  0
    4.7640   -3.8088    0.0000 S   0  0  0  0  0  0  0  0  0  0  0  0
    1.5000   -2.5981    0.0000 O   0  0  0  0  0  0  0  0  0  0  0  0
    0.7500   -1.2990    0.0000 C   0  0  0  0  0  0  0  0  0  0  0  0
    1.5000    0.0000    0.0000 C   0  0  0  0  0  0  0  0  0  0  0  0
    0.7500    1.2990    0.0000 C   0  0  0  0  0  0  0  0  0  0  0  0
   -0.7500    1.2990    0.0000 C   0  0  0  0  0  0  0  0  0  0  0  0
   -1.5000    0.0000    0.0000 C   0  0  0  0  0  0  0  0  0  0  0  0
   -0.7500   -1.2990    0.0000 C   0  0  0  0  0  0  0  0  0  0  0  0
   -1.5000   -2.5981    0.0000 C   0  0  0  0  0  0  0  0  0  0  0  0
   -3.0000   -2.5981    0.0000 C   0  0  0  0  0  0  0  0  0  0  0  0
   -3.7500   -3.8971    0.0000 C   0  0  0  0  0  0  0  0  0  0  0  0
   -3.0000   -5.1962    0.0000 C   0  0  0  0  0  0  0  0  0  0  0  0
   -1.5000   -5.1962    0.0000 C   0  0  0  0  0  0  0  0  0  0  0  0
   -0.7500   -3.8971    0.0000 C   0  0  0  0  0  0  0  0  0  0  0  0
  1  2  2  0
  2  3  1  0
  3  4  1  0
  4  5  1  0
  5  6  1  0
  3  7  1  0
  7  8  2  0
  8  9  1  0
  9 10  2  0
 10 11  1  0
  2 12  1  0
 12 13  1  0
 13 14  2  0
 14 15  1  0
 15 16  2  0
 16 17  1  0
 17 18  2  0
 18 19  1  0
 19 20  2  0
 20 21  1  0
 21 22  2  0
 22 23  1  0
 23 24  2  0
 24  2  1  0
 11  7  1  0
 18 13  1  0
 24 19  1  0
M  END
>  <Candidate_ID>  (315) 
CAND_R2_315

>  <Candidate_Name>  (315) 
D-AZ-NH-hydroxyethyl

>  <Parent_Seed_ID>  (315) 
TRAIN_042

>  <Parent_Name>  (315) 
D-AZ

>  <Transformation_Code>  (315) 
NH_hydroxyethyl

>  <Design_Family>  (315) 
P-N-S

>  <Preparation_Type>  (315) 
Additive

>  <Synthesis_Level>  (315) 
C

>  <Parent_Tanimoto_r3>  (315) 
0.40476190476190477

>  <Max_Train_Tanimoto_r3>  (315) 
0.40476190476190477

>  <Risk_Flags>  (315) 
large structural change from parent; candidate may be outside strict in-domain threshold; exploratory only; excluded from formal screening

$$$$
CAND_R2_316 | D-AZ-NH-glycidyl
     RDKit          2D

 25 29  0  0  0  0  0  0  0  0999 V2000
    0.4895   -5.3743    0.0000 O   0  0  0  0  0  0  0  0  0  0  0  0
    0.7500   -3.8971    0.0000 P   0  0  0  0  0  0  0  0  0  0  0  0
    2.1595   -4.4101    0.0000 N   0  0  0  0  0  0  0  0  0  0  0  0
    2.4200   -5.8874    0.0000 C   0  0  0  0  0  0  0  0  0  0  0  0
    3.8296   -6.4004    0.0000 C   0  0  0  0  0  0  0  0  0  0  0  0
    5.3068   -6.1399    0.0000 C   0  0  0  0  0  0  0  0  0  0  0  0
    4.7937   -7.5495    0.0000 O   0  0  0  0  0  0  0  0  0  0  0  0
    3.3086   -3.4460    0.0000 C   0  0  0  0  0  0  0  0  0  0  0  0
    3.2040   -1.9496    0.0000 N   0  0  0  0  0  0  0  0  0  0  0  0
    4.5947   -1.3877    0.0000 C   0  0  0  0  0  0  0  0  0  0  0  0
    5.5589   -2.5368    0.0000 C   0  0  0  0  0  0  0  0  0  0  0  0
    4.7640   -3.8088    0.0000 S   0  0  0  0  0  0  0  0  0  0  0  0
    1.5000   -2.5981    0.0000 O   0  0  0  0  0  0  0  0  0  0  0  0
    0.7500   -1.2990    0.0000 C   0  0  0  0  0  0  0  0  0  0  0  0
    1.5000    0.0000    0.0000 C   0  0  0  0  0  0  0  0  0  0  0  0
    0.7500    1.2990    0.0000 C   0  0  0  0  0  0  0  0  0  0  0  0
   -0.7500    1.2990    0.0000 C   0  0  0  0  0  0  0  0  0  0  0  0
   -1.5000    0.0000    0.0000 C   0  0  0  0  0  0  0  0  0  0  0  0
   -0.7500   -1.2990    0.0000 C   0  0  0  0  0  0  0  0  0  0  0  0
   -1.5000   -2.5981    0.0000 C   0  0  0  0  0  0  0  0  0  0  0  0
   -3.0000   -2.5981    0.0000 C   0  0  0  0  0  0  0  0  0  0  0  0
   -3.7500   -3.8971    0.0000 C   0  0  0  0  0  0  0  0  0  0  0  0
   -3.0000   -5.1962    0.0000 C   0  0  0  0  0  0  0  0  0  0  0  0
   -1.5000   -5.1962    0.0000 C   0  0  0  0  0  0  0  0  0  0  0  0
   -0.7500   -3.8971    0.0000 C   0  0  0  0  0  0  0  0  0  0  0  0
  1  2  2  0
  2  3  1  0
  3  4  1  0
  4  5  1  0
  5  6  1  0
  6  7  1  0
  3  8  1  0
  8  9  2  0
  9 10  1  0
 10 11  2  0
 11 12  1  0
  2 13  1  0
 13 14  1  0
 14 15  2  0
 15 16  1  0
 16 17  2  0
 17 18  1  0
 18 19  2  0
 19 20  1  0
 20 21  2  0
 21 22  1  0
 22 23  2  0
 23 24  1  0
 24 25  2  0
 25  2  1  0
  7  5  1  0
 12  8  1  0
 19 14  1  0
 25 20  1  0
M  END
>  <Candidate_ID>  (316) 
CAND_R2_316

>  <Candidate_Name>  (316) 
D-AZ-NH-glycidyl

>  <Parent_Seed_ID>  (316) 
TRAIN_042

>  <Parent_Name>  (316) 
D-AZ

>  <Transformation_Code>  (316) 
NH_glycidyl

>  <Design_Family>  (316) 
P-N-S

>  <Preparation_Type>  (316) 
Co-curing

>  <Synthesis_Level>  (316) 
C

>  <Parent_Tanimoto_r3>  (316) 
0.3953488372093023

>  <Max_Train_Tanimoto_r3>  (316) 
0.3953488372093023

>  <Risk_Flags>  (316) 
large structural change from parent; candidate may be outside strict in-domain threshold; exploratory only; excluded from formal screening

$$$$
CAND_R2_317 | BDO-amino
     RDKit          2D

 51 59  0  0  0  0  0  0  0  0999 V2000
    6.5809   -9.1382    0.0000 N   0  0  0  0  0  0  0  0  0  0  0  0
    5.7421   -7.8946    0.0000 C   0  0  0  0  0  0  0  0  0  0  0  0
    6.2551   -6.4851    0.0000 C   0  0  0  0  0  0  0  0  0  0  0  0
    5.0731   -5.5616    0.0000 C   0  0  0  0  0  0  0  0  0  0  0  0
    3.8296   -6.4004    0.0000 C   0  0  0  0  0  0  0  0  0  0  0  0
    2.4200   -5.8874    0.0000 C   0  0  0  0  0  0  0  0  0  0  0  0
    2.1595   -4.4101    0.0000 C   0  0  0  0  0  0  0  0  0  0  0  0
    0.7500   -3.8971    0.0000 P   0  0  0  0  0  0  0  0  0  0  0  0
    0.4895   -5.3743    0.0000 O   0  0  0  0  0  0  0  0  0  0  0  0
    1.5000   -2.5981    0.0000 O   0  0  0  0  0  0  0  0  0  0  0  0
    0.7500   -1.2990    0.0000 C   0  0  0  0  0  0  0  0  0  0  0  0
    1.5000    0.0000    0.0000 C   0  0  0  0  0  0  0  0  0  0  0  0
    0.7500    1.2990    0.0000 C   0  0  0  0  0  0  0  0  0  0  0  0
   -0.7500    1.2990    0.0000 C   0  0  0  0  0  0  0  0  0  0  0  0
   -1.5000    0.0000    0.0000 C   0  0  0  0  0  0  0  0  0  0  0  0
   -0.7500   -1.2990    0.0000 C   0  0  0  0  0  0  0  0  0  0  0  0
   -1.5000   -2.5981    0.0000 C   0  0  0  0  0  0  0  0  0  0  0  0
   -3.0000   -2.5981    0.0000 C   0  0  0  0  0  0  0  0  0  0  0  0
   -3.7500   -3.8971    0.0000 C   0  0  0  0  0  0  0  0  0  0  0  0
   -3.0000   -5.1962    0.0000 C   0  0  0  0  0  0  0  0  0  0  0  0
   -1.5000   -5.1962    0.0000 C   0  0  0  0  0  0  0  0  0  0  0  0
   -0.7500   -3.8971    0.0000 C   0  0  0  0  0  0  0  0  0  0  0  0
    1.2709   -6.8515    0.0000 N   0  0  0  0  0  0  0  0  0  0  0  0
    1.5314   -8.3287    0.0000 C   0  0  0  0  0  0  0  0  0  0  0  0
    2.8796   -8.9863    0.0000 N   0  0  0  0  0  0  0  0  0  0  0  0
    2.6708  -10.4717    0.0000 N   0  0  0  0  0  0  0  0  0  0  0  0
    1.1936  -10.7322    0.0000 C   0  0  0  0  0  0  0  0  0  0  0  0
    0.5361  -12.0804    0.0000 N   0  0  0  0  0  0  0  0  0  0  0  0
   -0.9603  -12.1850    0.0000 C   0  0  0  0  0  0  0  0  0  0  0  0
   -1.6178  -13.5332    0.0000 C   0  0  0  0  0  0  0  0  0  0  0  0
   -0.9136  -14.8576    0.0000 C   0  0  0  0  0  0  0  0  0  0  0  0
   -1.9556  -15.9366    0.0000 C   0  0  0  0  0  0  0  0  0  0  0  0
   -3.3038  -15.2791    0.0000 C   0  0  0  0  0  0  0  0  0  0  0  0
   -3.0950  -13.7937    0.0000 S   0  0  0  0  0  0  0  0  0  0  0  0
   -1.7991  -10.9414    0.0000 P   0  0  0  0  0  0  0  0  0  0  0  0
   -0.4287  -10.3313    0.0000 O   0  0  0  0  0  0  0  0  0  0  0  0
   -2.8781  -11.9834    0.0000 O   0  0  0  0  0  0  0  0  0  0  0  0
   -4.3200  -11.5700    0.0000 C   0  0  0  0  0  0  0  0  0  0  0  0
   -5.3990  -12.6120    0.0000 C   0  0  0  0  0  0  0  0  0  0  0  0
   -6.8409  -12.1985    0.0000 C   0  0  0  0  0  0  0  0  0  0  0  0
   -7.2037  -10.7431    0.0000 C   0  0  0  0  0  0  0  0  0  0  0  0
   -6.1247   -9.7011    0.0000 C   0  0  0  0  0  0  0  0  0  0  0  0
   -4.6828  -10.1145    0.0000 C   0  0  0  0  0  0  0  0  0  0  0  0
   -3.6038   -9.0726    0.0000 C   0  0  0  0  0  0  0  0  0  0  0  0
   -3.9667   -7.6171    0.0000 C   0  0  0  0  0  0  0  0  0  0  0  0
   -2.8877   -6.5751    0.0000 C   0  0  0  0  0  0  0  0  0  0  0  0
   -1.4458   -6.9886    0.0000 C   0  0  0  0  0  0  0  0  0  0  0  0
   -1.0829   -8.4440    0.0000 C   0  0  0  0  0  0  0  0  0  0  0  0
   -2.1619   -9.4860    0.0000 C   0  0  0  0  0  0  0  0  0  0  0  0
    0.4894   -9.4078    0.0000 N   0  0  0  0  0  0  0  0  0  0  0  0
    4.2430   -7.8423    0.0000 S   0  0  0  0  0  0  0  0  0  0  0  0
  1  2  1  0
  2  3  2  0
  3  4  1  0
  4  5  2  0
  5  6  1  0
  6  7  1  0
  7  8  1  0
  8  9  2  0
  8 10  1  0
 10 11  1  0
 11 12  2  0
 12 13  1  0
 13 14  2  0
 14 15  1  0
 15 16  2  0
 16 17  1  0
 17 18  2  0
 18 19  1  0
 19 20  2  0
 20 21  1  0
 21 22  2  0
  6 23  1  0
 23 24  1  0
 24 25  2  0
 25 26  1  0
 26 27  1  0
 27 28  1  0
 28 29  1  0
 29 30  1  0
 30 31  2  0
 31 32  1  0
 32 33  2  0
 33 34  1  0
 29 35  1  0
 35 36  2  0
 35 37  1  0
 37 38  1  0
 38 39  2  0
 39 40  1  0
 40 41  2  0
 41 42  1  0
 42 43  2  0
 43 44  1  0
 44 45  2  0
 45 46  1  0
 46 47  2  0
 47 48  1  0
 48 49  2  0
 27 50  2  0
  5 51  1  0
 51  2  1  0
 22  8  1  0
 50 24  1  0
 16 11  1  0
 22 17  1  0
 34 30  1  0
 49 35  1  0
 43 38  1  0
 49 44  1  0
M  END
>  <Candidate_ID>  (317) 
CAND_R2_317

>  <Candidate_Name>  (317) 
BDO-amino

>  <Parent_Seed_ID>  (317) 
TRAIN_122

>  <Parent_Name>  (317) 
BDO

>  <Transformation_Code>  (317) 
amino

>  <Design_Family>  (317) 
P-N-S

>  <Preparation_Type>  (317) 
Co-curing

>  <Synthesis_Level>  (317) 
B

>  <Parent_Tanimoto_r3>  (317) 
0.8431372549019608

>  <Max_Train_Tanimoto_r3>  (317) 
0.8431372549019608

>  <Risk_Flags>  (317) 
none

$$$$
CAND_R2_318 | BDO-hydroxy
     RDKit          2D

 51 59  0  0  0  0  0  0  0  0999 V2000
   10.9720   -6.1824    0.0000 O   0  0  0  0  0  0  0  0  0  0  0  0
   12.1855   -5.3008    0.0000 P   0  0  0  0  0  0  0  0  0  0  0  0
   11.1065   -4.2588    0.0000 C   0  0  0  0  0  0  0  0  0  0  0  0
    9.6646   -4.6722    0.0000 C   0  0  0  0  0  0  0  0  0  0  0  0
    8.5856   -3.6302    0.0000 N   0  0  0  0  0  0  0  0  0  0  0  0
    7.1437   -4.0437    0.0000 C   0  0  0  0  0  0  0  0  0  0  0  0
    6.6307   -5.4532    0.0000 N   0  0  0  0  0  0  0  0  0  0  0  0
    5.1316   -5.4009    0.0000 N   0  0  0  0  0  0  0  0  0  0  0  0
    4.7181   -3.9590    0.0000 C   0  0  0  0  0  0  0  0  0  0  0  0
    3.3086   -3.4460    0.0000 N   0  0  0  0  0  0  0  0  0  0  0  0
    2.1595   -4.4101    0.0000 C   0  0  0  0  0  0  0  0  0  0  0  0
    2.4200   -5.8874    0.0000 C   0  0  0  0  0  0  0  0  0  0  0  0
    3.7682   -6.5449    0.0000 C   0  0  0  0  0  0  0  0  0  0  0  0
    3.5594   -8.0303    0.0000 C   0  0  0  0  0  0  0  0  0  0  0  0
    2.0822   -8.2908    0.0000 C   0  0  0  0  0  0  0  0  0  0  0  0
    1.3780   -6.9664    0.0000 S   0  0  0  0  0  0  0  0  0  0  0  0
    0.7500   -3.8971    0.0000 P   0  0  0  0  0  0  0  0  0  0  0  0
    0.4895   -5.3743    0.0000 O   0  0  0  0  0  0  0  0  0  0  0  0
    1.5000   -2.5981    0.0000 O   0  0  0  0  0  0  0  0  0  0  0  0
    0.7500   -1.2990    0.0000 C   0  0  0  0  0  0  0  0  0  0  0  0
    1.5000    0.0000    0.0000 C   0  0  0  0  0  0  0  0  0  0  0  0
    0.7500    1.2990    0.0000 C   0  0  0  0  0  0  0  0  0  0  0  0
   -0.7500    1.2990    0.0000 C   0  0  0  0  0  0  0  0  0  0  0  0
   -1.5000    0.0000    0.0000 C   0  0  0  0  0  0  0  0  0  0  0  0
   -0.7500   -1.2990    0.0000 C   0  0  0  0  0  0  0  0  0  0  0  0
   -1.5000   -2.5981    0.0000 C   0  0  0  0  0  0  0  0  0  0  0  0
   -3.0000   -2.5981    0.0000 C   0  0  0  0  0  0  0  0  0  0  0  0
   -3.7500   -3.8971    0.0000 C   0  0  0  0  0  0  0  0  0  0  0  0
   -3.0000   -5.1962    0.0000 C   0  0  0  0  0  0  0  0  0  0  0  0
   -1.5000   -5.1962    0.0000 C   0  0  0  0  0  0  0  0  0  0  0  0
   -0.7500   -3.8971    0.0000 C   0  0  0  0  0  0  0  0  0  0  0  0
    5.9617   -3.1202    0.0000 N   0  0  0  0  0  0  0  0  0  0  0  0
    9.3017   -6.1277    0.0000 C   0  0  0  0  0  0  0  0  0  0  0  0
   10.2659   -7.2767    0.0000 C   0  0  0  0  0  0  0  0  0  0  0  0
    9.4710   -8.5488    0.0000 C   0  0  0  0  0  0  0  0  0  0  0  0
    8.0156   -8.1859    0.0000 C   0  0  0  0  0  0  0  0  0  0  0  0
    6.8665   -9.1501    0.0000 O   0  0  0  0  0  0  0  0  0  0  0  0
    7.9110   -6.6896    0.0000 S   0  0  0  0  0  0  0  0  0  0  0  0
   13.0243   -4.0572    0.0000 O   0  0  0  0  0  0  0  0  0  0  0  0
   14.5207   -4.1618    0.0000 C   0  0  0  0  0  0  0  0  0  0  0  0
   15.3594   -2.9183    0.0000 C   0  0  0  0  0  0  0  0  0  0  0  0
   16.8558   -3.0229    0.0000 C   0  0  0  0  0  0  0  0  0  0  0  0
   17.5133   -4.3711    0.0000 C   0  0  0  0  0  0  0  0  0  0  0  0
   16.6746   -5.6147    0.0000 C   0  0  0  0  0  0  0  0  0  0  0  0
   15.1782   -5.5100    0.0000 C   0  0  0  0  0  0  0  0  0  0  0  0
   14.3394   -6.7536    0.0000 C   0  0  0  0  0  0  0  0  0  0  0  0
   14.9970   -8.1018    0.0000 C   0  0  0  0  0  0  0  0  0  0  0  0
   14.1582   -9.3453    0.0000 C   0  0  0  0  0  0  0  0  0  0  0  0
   12.6618   -9.2407    0.0000 C   0  0  0  0  0  0  0  0  0  0  0  0
   12.0043   -7.8925    0.0000 C   0  0  0  0  0  0  0  0  0  0  0  0
   12.8431   -6.6490    0.0000 C   0  0  0  0  0  0  0  0  0  0  0  0
  1  2  2  0
  2  3  1  0
  3  4  1  0
  4  5  1  0
  5  6  1  0
  6  7  2  0
  7  8  1  0
  8  9  1  0
  9 10  1  0
 10 11  1  0
 11 12  1  0
 12 13  2  0
 13 14  1  0
 14 15  2  0
 15 16  1  0
 11 17  1  0
 17 18  2  0
 17 19  1  0
 19 20  1  0
 20 21  2  0
 21 22  1  0
 22 23  2  0
 23 24  1  0
 24 25  2  0
 25 26  1  0
 26 27  2  0
 27 28  1  0
 28 29  2  0
 29 30  1  0
 30 31  2  0
  9 32  2  0
  4 33  1  0
 33 34  2  0
 34 35  1  0
 35 36  2  0
 36 37  1  0
 36 38  1  0
  2 39  1  0
 39 40  1  0
 40 41  2  0
 41 42  1  0
 42 43  2  0
 43 44  1  0
 44 45  2  0
 45 46  1  0
 46 47  2  0
 47 48  1  0
 48 49  2  0
 49 50  1  0
 50 51  2  0
 51  2  1  0
 32  6  1  0
 38 33  1  0
 45 40  1  0
 51 46  1  0
 16 12  1  0
 31 17  1  0
 25 20  1  0
 31 26  1  0
M  END
>  <Candidate_ID>  (318) 
CAND_R2_318

>  <Candidate_Name>  (318) 
BDO-hydroxy

>  <Parent_Seed_ID>  (318) 
TRAIN_122

>  <Parent_Name>  (318) 
BDO

>  <Transformation_Code>  (318) 
hydroxy

>  <Design_Family>  (318) 
P-N-S

>  <Preparation_Type>  (318) 
Additive

>  <Synthesis_Level>  (318) 
B

>  <Parent_Tanimoto_r3>  (318) 
0.8431372549019608

>  <Max_Train_Tanimoto_r3>  (318) 
0.8431372549019608

>  <Risk_Flags>  (318) 
none

$$$$
CAND_R2_319 | BDO-hydroxymethyl
     RDKit          2D

 52 60  0  0  0  0  0  0  0  0999 V2000
   10.9720   -6.1824    0.0000 O   0  0  0  0  0  0  0  0  0  0  0  0
   12.1855   -5.3008    0.0000 P   0  0  0  0  0  0  0  0  0  0  0  0
   11.1065   -4.2588    0.0000 C   0  0  0  0  0  0  0  0  0  0  0  0
    9.6646   -4.6722    0.0000 C   0  0  0  0  0  0  0  0  0  0  0  0
    8.5856   -3.6302    0.0000 N   0  0  0  0  0  0  0  0  0  0  0  0
    7.1437   -4.0437    0.0000 C   0  0  0  0  0  0  0  0  0  0  0  0
    6.6307   -5.4532    0.0000 N   0  0  0  0  0  0  0  0  0  0  0  0
    5.1316   -5.4009    0.0000 N   0  0  0  0  0  0  0  0  0  0  0  0
    4.7181   -3.9590    0.0000 C   0  0  0  0  0  0  0  0  0  0  0  0
    3.3086   -3.4460    0.0000 N   0  0  0  0  0  0  0  0  0  0  0  0
    2.1595   -4.4101    0.0000 C   0  0  0  0  0  0  0  0  0  0  0  0
    2.4200   -5.8874    0.0000 C   0  0  0  0  0  0  0  0  0  0  0  0
    3.7682   -6.5449    0.0000 C   0  0  0  0  0  0  0  0  0  0  0  0
    3.5594   -8.0303    0.0000 C   0  0  0  0  0  0  0  0  0  0  0  0
    2.0822   -8.2908    0.0000 C   0  0  0  0  0  0  0  0  0  0  0  0
    1.3780   -6.9664    0.0000 S   0  0  0  0  0  0  0  0  0  0  0  0
    0.7500   -3.8971    0.0000 P   0  0  0  0  0  0  0  0  0  0  0  0
    0.4895   -5.3743    0.0000 O   0  0  0  0  0  0  0  0  0  0  0  0
    1.5000   -2.5981    0.0000 O   0  0  0  0  0  0  0  0  0  0  0  0
    0.7500   -1.2990    0.0000 C   0  0  0  0  0  0  0  0  0  0  0  0
    1.5000    0.0000    0.0000 C   0  0  0  0  0  0  0  0  0  0  0  0
    0.7500    1.2990    0.0000 C   0  0  0  0  0  0  0  0  0  0  0  0
   -0.7500    1.2990    0.0000 C   0  0  0  0  0  0  0  0  0  0  0  0
   -1.5000    0.0000    0.0000 C   0  0  0  0  0  0  0  0  0  0  0  0
   -0.7500   -1.2990    0.0000 C   0  0  0  0  0  0  0  0  0  0  0  0
   -1.5000   -2.5981    0.0000 C   0  0  0  0  0  0  0  0  0  0  0  0
   -3.0000   -2.5981    0.0000 C   0  0  0  0  0  0  0  0  0  0  0  0
   -3.7500   -3.8971    0.0000 C   0  0  0  0  0  0  0  0  0  0  0  0
   -3.0000   -5.1962    0.0000 C   0  0  0  0  0  0  0  0  0  0  0  0
   -1.5000   -5.1962    0.0000 C   0  0  0  0  0  0  0  0  0  0  0  0
   -0.7500   -3.8971    0.0000 C   0  0  0  0  0  0  0  0  0  0  0  0
    5.9617   -3.1202    0.0000 N   0  0  0  0  0  0  0  0  0  0  0  0
    9.3017   -6.1277    0.0000 C   0  0  0  0  0  0  0  0  0  0  0  0
   10.2659   -7.2767    0.0000 C   0  0  0  0  0  0  0  0  0  0  0  0
    9.4710   -8.5488    0.0000 C   0  0  0  0  0  0  0  0  0  0  0  0
    8.0156   -8.1859    0.0000 C   0  0  0  0  0  0  0  0  0  0  0  0
    6.8665   -9.1501    0.0000 C   0  0  0  0  0  0  0  0  0  0  0  0
    7.1270  -10.6273    0.0000 O   0  0  0  0  0  0  0  0  0  0  0  0
    7.9110   -6.6896    0.0000 S   0  0  0  0  0  0  0  0  0  0  0  0
   13.0243   -4.0572    0.0000 O   0  0  0  0  0  0  0  0  0  0  0  0
   14.5207   -4.1618    0.0000 C   0  0  0  0  0  0  0  0  0  0  0  0
   15.3594   -2.9183    0.0000 C   0  0  0  0  0  0  0  0  0  0  0  0
   16.8558   -3.0229    0.0000 C   0  0  0  0  0  0  0  0  0  0  0  0
   17.5133   -4.3711    0.0000 C   0  0  0  0  0  0  0  0  0  0  0  0
   16.6746   -5.6147    0.0000 C   0  0  0  0  0  0  0  0  0  0  0  0
   15.1782   -5.5100    0.0000 C   0  0  0  0  0  0  0  0  0  0  0  0
   14.3394   -6.7536    0.0000 C   0  0  0  0  0  0  0  0  0  0  0  0
   14.9970   -8.1018    0.0000 C   0  0  0  0  0  0  0  0  0  0  0  0
   14.1582   -9.3453    0.0000 C   0  0  0  0  0  0  0  0  0  0  0  0
   12.6618   -9.2407    0.0000 C   0  0  0  0  0  0  0  0  0  0  0  0
   12.0043   -7.8925    0.0000 C   0  0  0  0  0  0  0  0  0  0  0  0
   12.8431   -6.6490    0.0000 C   0  0  0  0  0  0  0  0  0  0  0  0
  1  2  2  0
  2  3  1  0
  3  4  1  0
  4  5  1  0
  5  6  1  0
  6  7  2  0
  7  8  1  0
  8  9  1  0
  9 10  1  0
 10 11  1  0
 11 12  1  0
 12 13  2  0
 13 14  1  0
 14 15  2  0
 15 16  1  0
 11 17  1  0
 17 18  2  0
 17 19  1  0
 19 20  1  0
 20 21  2  0
 21 22  1  0
 22 23  2  0
 23 24  1  0
 24 25  2  0
 25 26  1  0
 26 27  2  0
 27 28  1  0
 28 29  2  0
 29 30  1  0
 30 31  2  0
  9 32  2  0
  4 33  1  0
 33 34  2  0
 34 35  1  0
 35 36  2  0
 36 37  1  0
 37 38  1  0
 36 39  1  0
  2 40  1  0
 40 41  1  0
 41 42  2  0
 42 43  1  0
 43 44  2  0
 44 45  1  0
 45 46  2  0
 46 47  1  0
 47 48  2  0
 48 49  1  0
 49 50  2  0
 50 51  1  0
 51 52  2  0
 52  2  1  0
 32  6  1  0
 39 33  1  0
 46 41  1  0
 52 47  1  0
 16 12  1  0
 31 17  1  0
 25 20  1  0
 31 26  1  0
M  END
>  <Candidate_ID>  (319) 
CAND_R2_319

>  <Candidate_Name>  (319) 
BDO-hydroxymethyl

>  <Parent_Seed_ID>  (319) 
TRAIN_122

>  <Parent_Name>  (319) 
BDO

>  <Transformation_Code>  (319) 
hydroxymethyl

>  <Design_Family>  (319) 
P-N-S

>  <Preparation_Type>  (319) 
Additive

>  <Synthesis_Level>  (319) 
B

>  <Parent_Tanimoto_r3>  (319) 
0.8269230769230769

>  <Max_Train_Tanimoto_r3>  (319) 
0.8269230769230769

>  <Risk_Flags>  (319) 
none

$$$$
CAND_R2_320 | BDO-carboxamide
     RDKit          2D

 53 61  0  0  0  0  0  0  0  0999 V2000
    5.9233  -10.4864    0.0000 N   0  0  0  0  0  0  0  0  0  0  0  0
    6.5809   -9.1382    0.0000 C   0  0  0  0  0  0  0  0  0  0  0  0
    8.0772   -9.0335    0.0000 O   0  0  0  0  0  0  0  0  0  0  0  0
    5.7421   -7.8946    0.0000 C   0  0  0  0  0  0  0  0  0  0  0  0
    6.2551   -6.4851    0.0000 C   0  0  0  0  0  0  0  0  0  0  0  0
    5.0731   -5.5616    0.0000 C   0  0  0  0  0  0  0  0  0  0  0  0
    3.8296   -6.4004    0.0000 C   0  0  0  0  0  0  0  0  0  0  0  0
    2.4200   -5.8874    0.0000 C   0  0  0  0  0  0  0  0  0  0  0  0
    2.1595   -4.4101    0.0000 C   0  0  0  0  0  0  0  0  0  0  0  0
    0.7500   -3.8971    0.0000 P   0  0  0  0  0  0  0  0  0  0  0  0
    0.4895   -5.3743    0.0000 O   0  0  0  0  0  0  0  0  0  0  0  0
    1.5000   -2.5981    0.0000 O   0  0  0  0  0  0  0  0  0  0  0  0
    0.7500   -1.2990    0.0000 C   0  0  0  0  0  0  0  0  0  0  0  0
    1.5000    0.0000    0.0000 C   0  0  0  0  0  0  0  0  0  0  0  0
    0.7500    1.2990    0.0000 C   0  0  0  0  0  0  0  0  0  0  0  0
   -0.7500    1.2990    0.0000 C   0  0  0  0  0  0  0  0  0  0  0  0
   -1.5000    0.0000    0.0000 C   0  0  0  0  0  0  0  0  0  0  0  0
   -0.7500   -1.2990    0.0000 C   0  0  0  0  0  0  0  0  0  0  0  0
   -1.5000   -2.5981    0.0000 C   0  0  0  0  0  0  0  0  0  0  0  0
   -3.0000   -2.5981    0.0000 C   0  0  0  0  0  0  0  0  0  0  0  0
   -3.7500   -3.8971    0.0000 C   0  0  0  0  0  0  0  0  0  0  0  0
   -3.0000   -5.1962    0.0000 C   0  0  0  0  0  0  0  0  0  0  0  0
   -1.5000   -5.1962    0.0000 C   0  0  0  0  0  0  0  0  0  0  0  0
   -0.7500   -3.8971    0.0000 C   0  0  0  0  0  0  0  0  0  0  0  0
    1.2709   -6.8515    0.0000 N   0  0  0  0  0  0  0  0  0  0  0  0
    1.5314   -8.3287    0.0000 C   0  0  0  0  0  0  0  0  0  0  0  0
    2.8796   -8.9863    0.0000 N   0  0  0  0  0  0  0  0  0  0  0  0
    2.6708  -10.4717    0.0000 N   0  0  0  0  0  0  0  0  0  0  0  0
    1.1936  -10.7322    0.0000 C   0  0  0  0  0  0  0  0  0  0  0  0
    0.5361  -12.0804    0.0000 N   0  0  0  0  0  0  0  0  0  0  0  0
   -0.9603  -12.1850    0.0000 C   0  0  0  0  0  0  0  0  0  0  0  0
   -1.6178  -13.5332    0.0000 C   0  0  0  0  0  0  0  0  0  0  0  0
   -0.9136  -14.8576    0.0000 C   0  0  0  0  0  0  0  0  0  0  0  0
   -1.9556  -15.9366    0.0000 C   0  0  0  0  0  0  0  0  0  0  0  0
   -3.3038  -15.2791    0.0000 C   0  0  0  0  0  0  0  0  0  0  0  0
   -3.0950  -13.7937    0.0000 S   0  0  0  0  0  0  0  0  0  0  0  0
   -1.7991  -10.9414    0.0000 P   0  0  0  0  0  0  0  0  0  0  0  0
   -0.4287  -10.3313    0.0000 O   0  0  0  0  0  0  0  0  0  0  0  0
   -2.8781  -11.9834    0.0000 O   0  0  0  0  0  0  0  0  0  0  0  0
   -4.3200  -11.5700    0.0000 C   0  0  0  0  0  0  0  0  0  0  0  0
   -5.3990  -12.6120    0.0000 C   0  0  0  0  0  0  0  0  0  0  0  0
   -6.8409  -12.1985    0.0000 C   0  0  0  0  0  0  0  0  0  0  0  0
   -7.2037  -10.7431    0.0000 C   0  0  0  0  0  0  0  0  0  0  0  0
   -6.1247   -9.7011    0.0000 C   0  0  0  0  0  0  0  0  0  0  0  0
   -4.6828  -10.1145    0.0000 C   0  0  0  0  0  0  0  0  0  0  0  0
   -3.6038   -9.0726    0.0000 C   0  0  0  0  0  0  0  0  0  0  0  0
   -3.9667   -7.6171    0.0000 C   0  0  0  0  0  0  0  0  0  0  0  0
   -2.8877   -6.5751    0.0000 C   0  0  0  0  0  0  0  0  0  0  0  0
   -1.4458   -6.9886    0.0000 C   0  0  0  0  0  0  0  0  0  0  0  0
   -1.0829   -8.4440    0.0000 C   0  0  0  0  0  0  0  0  0  0  0  0
   -2.1619   -9.4860    0.0000 C   0  0  0  0  0  0  0  0  0  0  0  0
    0.4894   -9.4078    0.0000 N   0  0  0  0  0  0  0  0  0  0  0  0
    4.2430   -7.8423    0.0000 S   0  0  0  0  0  0  0  0  0  0  0  0
  1  2  1  0
  2  3  2  0
  2  4  1  0
  4  5  2  0
  5  6  1  0
  6  7  2  0
  7  8  1  0
  8  9  1  0
  9 10  1  0
 10 11  2  0
 10 12  1  0
 12 13  1  0
 13 14  2  0
 14 15  1  0
 15 16  2  0
 16 17  1  0
 17 18  2  0
 18 19  1  0
 19 20  2  0
 20 21  1  0
 21 22  2  0
 22 23  1  0
 23 24  2  0
  8 25  1  0
 25 26  1  0
 26 27  2  0
 27 28  1  0
 28 29  1  0
 29 30  1  0
 30 31  1  0
 31 32  1  0
 32 33  2  0
 33 34  1  0
 34 35  2  0
 35 36  1  0
 31 37  1  0
 37 38  2  0
 37 39  1  0
 39 40  1  0
 40 41  2  0
 41 42  1  0
 42 43  2  0
 43 44  1  0
 44 45  2  0
 45 46  1  0
 46 47  2  0
 47 48  1  0
 48 49  2  0
 49 50  1  0
 50 51  2  0
 29 52  2  0
  7 53  1  0
 53  4  1  0
 24 10  1  0
 52 26  1  0
 18 13  1  0
 24 19  1  0
 36 32  1  0
 51 37  1  0
 45 40  1  0
 51 46  1  0
M  END
>  <Candidate_ID>  (320) 
CAND_R2_320

>  <Candidate_Name>  (320) 
BDO-carboxamide

>  <Parent_Seed_ID>  (320) 
TRAIN_122

>  <Parent_Name>  (320) 
BDO

>  <Transformation_Code>  (320) 
carboxamide

>  <Design_Family>  (320) 
P-N-S

>  <Preparation_Type>  (320) 
Additive

>  <Synthesis_Level>  (320) 
B

>  <Parent_Tanimoto_r3>  (320) 
0.8037383177570093

>  <Max_Train_Tanimoto_r3>  (320) 
0.8037383177570093

>  <Risk_Flags>  (320) 
none

$$$$
CAND_R2_321 | BDO-boronic-acid
     RDKit          2D

 53 61  0  0  0  0  0  0  0  0999 V2000
   10.9720   -6.1824    0.0000 O   0  0  0  0  0  0  0  0  0  0  0  0
   12.1855   -5.3008    0.0000 P   0  0  0  0  0  0  0  0  0  0  0  0
   11.1065   -4.2588    0.0000 C   0  0  0  0  0  0  0  0  0  0  0  0
    9.6646   -4.6722    0.0000 C   0  0  0  0  0  0  0  0  0  0  0  0
    8.5856   -3.6302    0.0000 N   0  0  0  0  0  0  0  0  0  0  0  0
    7.1437   -4.0437    0.0000 C   0  0  0  0  0  0  0  0  0  0  0  0
    6.6307   -5.4532    0.0000 N   0  0  0  0  0  0  0  0  0  0  0  0
    5.1316   -5.4009    0.0000 N   0  0  0  0  0  0  0  0  0  0  0  0
    4.7181   -3.9590    0.0000 C   0  0  0  0  0  0  0  0  0  0  0  0
    3.3086   -3.4460    0.0000 N   0  0  0  0  0  0  0  0  0  0  0  0
    2.1595   -4.4101    0.0000 C   0  0  0  0  0  0  0  0  0  0  0  0
    2.4200   -5.8874    0.0000 C   0  0  0  0  0  0  0  0  0  0  0  0
    3.7682   -6.5449    0.0000 C   0  0  0  0  0  0  0  0  0  0  0  0
    3.5594   -8.0303    0.0000 C   0  0  0  0  0  0  0  0  0  0  0  0
    2.0822   -8.2908    0.0000 C   0  0  0  0  0  0  0  0  0  0  0  0
    1.3780   -6.9664    0.0000 S   0  0  0  0  0  0  0  0  0  0  0  0
    0.7500   -3.8971    0.0000 P   0  0  0  0  0  0  0  0  0  0  0  0
    0.4895   -5.3743    0.0000 O   0  0  0  0  0  0  0  0  0  0  0  0
    1.5000   -2.5981    0.0000 O   0  0  0  0  0  0  0  0  0  0  0  0
    0.7500   -1.2990    0.0000 C   0  0  0  0  0  0  0  0  0  0  0  0
    1.5000    0.0000    0.0000 C   0  0  0  0  0  0  0  0  0  0  0  0
    0.7500    1.2990    0.0000 C   0  0  0  0  0  0  0  0  0  0  0  0
   -0.7500    1.2990    0.0000 C   0  0  0  0  0  0  0  0  0  0  0  0
   -1.5000    0.0000    0.0000 C   0  0  0  0  0  0  0  0  0  0  0  0
   -0.7500   -1.2990    0.0000 C   0  0  0  0  0  0  0  0  0  0  0  0
   -1.5000   -2.5981    0.0000 C   0  0  0  0  0  0  0  0  0  0  0  0
   -3.0000   -2.5981    0.0000 C   0  0  0  0  0  0  0  0  0  0  0  0
   -3.7500   -3.8971    0.0000 C   0  0  0  0  0  0  0  0  0  0  0  0
   -3.0000   -5.1962    0.0000 C   0  0  0  0  0  0  0  0  0  0  0  0
   -1.5000   -5.1962    0.0000 C   0  0  0  0  0  0  0  0  0  0  0  0
   -0.7500   -3.8971    0.0000 C   0  0  0  0  0  0  0  0  0  0  0  0
    5.9617   -3.1202    0.0000 N   0  0  0  0  0  0  0  0  0  0  0  0
    9.3017   -6.1277    0.0000 C   0  0  0  0  0  0  0  0  0  0  0  0
   10.2659   -7.2767    0.0000 C   0  0  0  0  0  0  0  0  0  0  0  0
    9.4710   -8.5488    0.0000 C   0  0  0  0  0  0  0  0  0  0  0  0
    8.0156   -8.1859    0.0000 C   0  0  0  0  0  0  0  0  0  0  0  0
    6.8665   -9.1501    0.0000 B   0  0  0  0  0  0  0  0  0  0  0  0
    7.1270  -10.6273    0.0000 O   0  0  0  0  0  0  0  0  0  0  0  0
    5.4570   -8.6371    0.0000 O   0  0  0  0  0  0  0  0  0  0  0  0
    7.9110   -6.6896    0.0000 S   0  0  0  0  0  0  0  0  0  0  0  0
   13.0243   -4.0572    0.0000 O   0  0  0  0  0  0  0  0  0  0  0  0
   14.5207   -4.1618    0.0000 C   0  0  0  0  0  0  0  0  0  0  0  0
   15.3594   -2.9183    0.0000 C   0  0  0  0  0  0  0  0  0  0  0  0
   16.8558   -3.0229    0.0000 C   0  0  0  0  0  0  0  0  0  0  0  0
   17.5133   -4.3711    0.0000 C   0  0  0  0  0  0  0  0  0  0  0  0
   16.6746   -5.6147    0.0000 C   0  0  0  0  0  0  0  0  0  0  0  0
   15.1782   -5.5100    0.0000 C   0  0  0  0  0  0  0  0  0  0  0  0
   14.3394   -6.7536    0.0000 C   0  0  0  0  0  0  0  0  0  0  0  0
   14.9970   -8.1018    0.0000 C   0  0  0  0  0  0  0  0  0  0  0  0
   14.1582   -9.3453    0.0000 C   0  0  0  0  0  0  0  0  0  0  0  0
   12.6618   -9.2407    0.0000 C   0  0  0  0  0  0  0  0  0  0  0  0
   12.0043   -7.8925    0.0000 C   0  0  0  0  0  0  0  0  0  0  0  0
   12.8431   -6.6490    0.0000 C   0  0  0  0  0  0  0  0  0  0  0  0
  1  2  2  0
  2  3  1  0
  3  4  1  0
  4  5  1  0
  5  6  1  0
  6  7  2  0
  7  8  1  0
  8  9  1  0
  9 10  1  0
 10 11  1  0
 11 12  1  0
 12 13  2  0
 13 14  1  0
 14 15  2  0
 15 16  1  0
 11 17  1  0
 17 18  2  0
 17 19  1  0
 19 20  1  0
 20 21  2  0
 21 22  1  0
 22 23  2  0
 23 24  1  0
 24 25  2  0
 25 26  1  0
 26 27  2  0
 27 28  1  0
 28 29  2  0
 29 30  1  0
 30 31  2  0
  9 32  2  0
  4 33  1  0
 33 34  2  0
 34 35  1  0
 35 36  2  0
 36 37  1  0
 37 38  1  0
 37 39  1  0
 36 40  1  0
  2 41  1  0
 41 42  1  0
 42 43  2  0
 43 44  1  0
 44 45  2  0
 45 46  1  0
 46 47  2  0
 47 48  1  0
 48 49  2  0
 49 50  1  0
 50 51  2  0
 51 52  1  0
 52 53  2  0
 53  2  1  0
 32  6  1  0
 40 33  1  0
 47 42  1  0
 53 48  1  0
 16 12  1  0
 31 17  1  0
 25 20  1  0
 31 26  1  0
M  END
>  <Candidate_ID>  (321) 
CAND_R2_321

>  <Candidate_Name>  (321) 
BDO-boronic-acid

>  <Parent_Seed_ID>  (321) 
TRAIN_122

>  <Parent_Name>  (321) 
BDO

>  <Transformation_Code>  (321) 
boronic_acid

>  <Design_Family>  (321) 
P-N-B-S

>  <Preparation_Type>  (321) 
Additive

>  <Synthesis_Level>  (321) 
B

>  <Parent_Tanimoto_r3>  (321) 
0.819047619047619

>  <Max_Train_Tanimoto_r3>  (321) 
0.819047619047619

>  <Risk_Flags>  (321) 
none

$$$$
CAND_R2_322 | BDO-pinacol-boronate
     RDKit          2D

 59 68  0  0  0  0  0  0  0  0999 V2000
    9.6045   -3.2181    0.0000 C   0  0  0  0  0  0  0  0  0  0  0  0
    9.7091   -4.7144    0.0000 C   0  0  0  0  0  0  0  0  0  0  0  0
   11.1863   -4.4540    0.0000 C   0  0  0  0  0  0  0  0  0  0  0  0
    8.2100   -4.6621    0.0000 O   0  0  0  0  0  0  0  0  0  0  0  0
    7.6970   -6.0716    0.0000 B   0  0  0  0  0  0  0  0  0  0  0  0
    6.2551   -6.4851    0.0000 C   0  0  0  0  0  0  0  0  0  0  0  0
    5.7421   -7.8946    0.0000 C   0  0  0  0  0  0  0  0  0  0  0  0
    4.2430   -7.8423    0.0000 C   0  0  0  0  0  0  0  0  0  0  0  0
    3.8296   -6.4004    0.0000 C   0  0  0  0  0  0  0  0  0  0  0  0
    2.4200   -5.8874    0.0000 C   0  0  0  0  0  0  0  0  0  0  0  0
    2.1595   -4.4101    0.0000 C   0  0  0  0  0  0  0  0  0  0  0  0
    0.7500   -3.8971    0.0000 P   0  0  0  0  0  0  0  0  0  0  0  0
    0.4895   -5.3743    0.0000 O   0  0  0  0  0  0  0  0  0  0  0  0
    1.5000   -2.5981    0.0000 O   0  0  0  0  0  0  0  0  0  0  0  0
    0.7500   -1.2990    0.0000 C   0  0  0  0  0  0  0  0  0  0  0  0
    1.5000    0.0000    0.0000 C   0  0  0  0  0  0  0  0  0  0  0  0
    0.7500    1.2990    0.0000 C   0  0  0  0  0  0  0  0  0  0  0  0
   -0.7500    1.2990    0.0000 C   0  0  0  0  0  0  0  0  0  0  0  0
   -1.5000    0.0000    0.0000 C   0  0  0  0  0  0  0  0  0  0  0  0
   -0.7500   -1.2990    0.0000 C   0  0  0  0  0  0  0  0  0  0  0  0
   -1.5000   -2.5981    0.0000 C   0  0  0  0  0  0  0  0  0  0  0  0
   -3.0000   -2.5981    0.0000 C   0  0  0  0  0  0  0  0  0  0  0  0
   -3.7500   -3.8971    0.0000 C   0  0  0  0  0  0  0  0  0  0  0  0
   -3.0000   -5.1962    0.0000 C   0  0  0  0  0  0  0  0  0  0  0  0
   -1.5000   -5.1962    0.0000 C   0  0  0  0  0  0  0  0  0  0  0  0
   -0.7500   -3.8971    0.0000 C   0  0  0  0  0  0  0  0  0  0  0  0
    1.2709   -6.8515    0.0000 N   0  0  0  0  0  0  0  0  0  0  0  0
    1.5314   -8.3287    0.0000 C   0  0  0  0  0  0  0  0  0  0  0  0
    2.8796   -8.9863    0.0000 N   0  0  0  0  0  0  0  0  0  0  0  0
    2.6708  -10.4717    0.0000 N   0  0  0  0  0  0  0  0  0  0  0  0
    1.1936  -10.7322    0.0000 C   0  0  0  0  0  0  0  0  0  0  0  0
    0.5361  -12.0804    0.0000 N   0  0  0  0  0  0  0  0  0  0  0  0
   -0.9603  -12.1850    0.0000 C   0  0  0  0  0  0  0  0  0  0  0  0
   -1.6178  -13.5332    0.0000 C   0  0  0  0  0  0  0  0  0  0  0  0
   -0.9136  -14.8576    0.0000 C   0  0  0  0  0  0  0  0  0  0  0  0
   -1.9556  -15.9366    0.0000 C   0  0  0  0  0  0  0  0  0  0  0  0
   -3.3038  -15.2791    0.0000 C   0  0  0  0  0  0  0  0  0  0  0  0
   -3.0950  -13.7937    0.0000 S   0  0  0  0  0  0  0  0  0  0  0  0
   -1.7991  -10.9414    0.0000 P   0  0  0  0  0  0  0  0  0  0  0  0
   -0.4287  -10.3313    0.0000 O   0  0  0  0  0  0  0  0  0  0  0  0
   -2.8781  -11.9834    0.0000 O   0  0  0  0  0  0  0  0  0  0  0  0
   -4.3200  -11.5700    0.0000 C   0  0  0  0  0  0  0  0  0  0  0  0
   -5.3990  -12.6120    0.0000 C   0  0  0  0  0  0  0  0  0  0  0  0
   -6.8409  -12.1985    0.0000 C   0  0  0  0  0  0  0  0  0  0  0  0
   -7.2037  -10.7431    0.0000 C   0  0  0  0  0  0  0  0  0  0  0  0
   -6.1247   -9.7011    0.0000 C   0  0  0  0  0  0  0  0  0  0  0  0
   -4.6828  -10.1145    0.0000 C   0  0  0  0  0  0  0  0  0  0  0  0
   -3.6038   -9.0726    0.0000 C   0  0  0  0  0  0  0  0  0  0  0  0
   -3.9667   -7.6171    0.0000 C   0  0  0  0  0  0  0  0  0  0  0  0
   -2.8877   -6.5751    0.0000 C   0  0  0  0  0  0  0  0  0  0  0  0
   -1.4458   -6.9886    0.0000 C   0  0  0  0  0  0  0  0  0  0  0  0
   -1.0829   -8.4440    0.0000 C   0  0  0  0  0  0  0  0  0  0  0  0
   -2.1619   -9.4860    0.0000 C   0  0  0  0  0  0  0  0  0  0  0  0
    0.4894   -9.4078    0.0000 N   0  0  0  0  0  0  0  0  0  0  0  0
    5.0731   -5.5616    0.0000 S   0  0  0  0  0  0  0  0  0  0  0  0
    8.8790   -6.9951    0.0000 O   0  0  0  0  0  0  0  0  0  0  0  0
   10.1226   -6.1563    0.0000 C   0  0  0  0  0  0  0  0  0  0  0  0
   11.5134   -5.5944    0.0000 C   0  0  0  0  0  0  0  0  0  0  0  0
   10.8268   -7.4808    0.0000 C   0  0  0  0  0  0  0  0  0  0  0  0
  1  2  1  0
  2  3  1  0
  2  4  1  0
  4  5  1  0
  5  6  1  0
  6  7  2  0
  7  8  1  0
  8  9  2  0
  9 10  1  0
 10 11  1  0
 11 12  1  0
 12 13  2  0
 12 14  1  0
 14 15  1  0
 15 16  2  0
 16 17  1  0
 17 18  2  0
 18 19  1  0
 19 20  2  0
 20 21  1  0
 21 22  2  0
 22 23  1  0
 23 24  2  0
 24 25  1  0
 25 26  2  0
 10 27  1  0
 27 28  1  0
 28 29  2  0
 29 30  1  0
 30 31  1  0
 31 32  1  0
 32 33  1  0
 33 34  1  0
 34 35  2  0
 35 36  1  0
 36 37  2  0
 37 38  1  0
 33 39  1  0
 39 40  2  0
 39 41  1  0
 41 42  1  0
 42 43  2  0
 43 44  1  0
 44 45  2  0
 45 46  1  0
 46 47  2  0
 47 48  1  0
 48 49  2  0
 49 50  1  0
 50 51  2  0
 51 52  1  0
 52 53  2  0
 31 54  2  0
  9 55  1  0
  5 56  1  0
 56 57  1  0
 57 58  1  0
 57 59  1  0
 57  2  1  0
 55  6  1  0
 26 12  1  0
 54 28  1  0
 20 15  1  0
 26 21  1  0
 38 34  1  0
 53 39  1  0
 47 42  1  0
 53 48  1  0
M  END
>  <Candidate_ID>  (322) 
CAND_R2_322

>  <Candidate_Name>  (322) 
BDO-pinacol-boronate

>  <Parent_Seed_ID>  (322) 
TRAIN_122

>  <Parent_Name>  (322) 
BDO

>  <Transformation_Code>  (322) 
pinacol_boronate

>  <Design_Family>  (322) 
P-N-B-S

>  <Preparation_Type>  (322) 
Additive

>  <Synthesis_Level>  (322) 
B

>  <Parent_Tanimoto_r3>  (322) 
0.7543859649122807

>  <Max_Train_Tanimoto_r3>  (322) 
0.7543859649122807

>  <Risk_Flags>  (322) 
none

$$$$
CAND_R2_323 | BDO-trimethoxysilyl
     RDKit          2D

 57 65  0  0  0  0  0  0  0  0999 V2000
    8.9160  -10.2771    0.0000 C   0  0  0  0  0  0  0  0  0  0  0  0
    7.4197  -10.3817    0.0000 O   0  0  0  0  0  0  0  0  0  0  0  0
    6.5809   -9.1382    0.0000 Si  0  0  0  0  0  4  0  0  0  0  0  0
    5.3373   -9.9770    0.0000 O   0  0  0  0  0  0  0  0  0  0  0  0
    5.4420  -11.4733    0.0000 C   0  0  0  0  0  0  0  0  0  0  0  0
    7.8244   -8.2994    0.0000 O   0  0  0  0  0  0  0  0  0  0  0  0
    9.1726   -8.9570    0.0000 C   0  0  0  0  0  0  0  0  0  0  0  0
    5.7421   -7.8946    0.0000 C   0  0  0  0  0  0  0  0  0  0  0  0
    6.2551   -6.4851    0.0000 C   0  0  0  0  0  0  0  0  0  0  0  0
    5.0731   -5.5616    0.0000 C   0  0  0  0  0  0  0  0  0  0  0  0
    3.8296   -6.4004    0.0000 C   0  0  0  0  0  0  0  0  0  0  0  0
    2.4200   -5.8874    0.0000 C   0  0  0  0  0  0  0  0  0  0  0  0
    2.1595   -4.4101    0.0000 C   0  0  0  0  0  0  0  0  0  0  0  0
    0.7500   -3.8971    0.0000 P   0  0  0  0  0  0  0  0  0  0  0  0
    0.4895   -5.3743    0.0000 O   0  0  0  0  0  0  0  0  0  0  0  0
    1.5000   -2.5981    0.0000 O   0  0  0  0  0  0  0  0  0  0  0  0
    0.7500   -1.2990    0.0000 C   0  0  0  0  0  0  0  0  0  0  0  0
    1.5000    0.0000    0.0000 C   0  0  0  0  0  0  0  0  0  0  0  0
    0.7500    1.2990    0.0000 C   0  0  0  0  0  0  0  0  0  0  0  0
   -0.7500    1.2990    0.0000 C   0  0  0  0  0  0  0  0  0  0  0  0
   -1.5000    0.0000    0.0000 C   0  0  0  0  0  0  0  0  0  0  0  0
   -0.7500   -1.2990    0.0000 C   0  0  0  0  0  0  0  0  0  0  0  0
   -1.5000   -2.5981    0.0000 C   0  0  0  0  0  0  0  0  0  0  0  0
   -3.0000   -2.5981    0.0000 C   0  0  0  0  0  0  0  0  0  0  0  0
   -3.7500   -3.8971    0.0000 C   0  0  0  0  0  0  0  0  0  0  0  0
   -3.0000   -5.1962    0.0000 C   0  0  0  0  0  0  0  0  0  0  0  0
   -1.5000   -5.1962    0.0000 C   0  0  0  0  0  0  0  0  0  0  0  0
   -0.7500   -3.8971    0.0000 C   0  0  0  0  0  0  0  0  0  0  0  0
    1.2709   -6.8515    0.0000 N   0  0  0  0  0  0  0  0  0  0  0  0
    1.5314   -8.3287    0.0000 C   0  0  0  0  0  0  0  0  0  0  0  0
    2.8796   -8.9863    0.0000 N   0  0  0  0  0  0  0  0  0  0  0  0
    2.6708  -10.4717    0.0000 N   0  0  0  0  0  0  0  0  0  0  0  0
    1.1936  -10.7322    0.0000 C   0  0  0  0  0  0  0  0  0  0  0  0
    0.5361  -12.0804    0.0000 N   0  0  0  0  0  0  0  0  0  0  0  0
   -0.9603  -12.1850    0.0000 C   0  0  0  0  0  0  0  0  0  0  0  0
   -1.6178  -13.5332    0.0000 C   0  0  0  0  0  0  0  0  0  0  0  0
   -0.9136  -14.8576    0.0000 C   0  0  0  0  0  0  0  0  0  0  0  0
   -1.9556  -15.9366    0.0000 C   0  0  0  0  0  0  0  0  0  0  0  0
   -3.3038  -15.2791    0.0000 C   0  0  0  0  0  0  0  0  0  0  0  0
   -3.0950  -13.7937    0.0000 S   0  0  0  0  0  0  0  0  0  0  0  0
   -1.7991  -10.9414    0.0000 P   0  0  0  0  0  0  0  0  0  0  0  0
   -0.4287  -10.3313    0.0000 O   0  0  0  0  0  0  0  0  0  0  0  0
   -2.8781  -11.9834    0.0000 O   0  0  0  0  0  0  0  0  0  0  0  0
   -4.3200  -11.5700    0.0000 C   0  0  0  0  0  0  0  0  0  0  0  0
   -5.3990  -12.6120    0.0000 C   0  0  0  0  0  0  0  0  0  0  0  0
   -6.8409  -12.1985    0.0000 C   0  0  0  0  0  0  0  0  0  0  0  0
   -7.2037  -10.7431    0.0000 C   0  0  0  0  0  0  0  0  0  0  0  0
   -6.1247   -9.7011    0.0000 C   0  0  0  0  0  0  0  0  0  0  0  0
   -4.6828  -10.1145    0.0000 C   0  0  0  0  0  0  0  0  0  0  0  0
   -3.6038   -9.0726    0.0000 C   0  0  0  0  0  0  0  0  0  0  0  0
   -3.9667   -7.6171    0.0000 C   0  0  0  0  0  0  0  0  0  0  0  0
   -2.8877   -6.5751    0.0000 C   0  0  0  0  0  0  0  0  0  0  0  0
   -1.4458   -6.9886    0.0000 C   0  0  0  0  0  0  0  0  0  0  0  0
   -1.0829   -8.4440    0.0000 C   0  0  0  0  0  0  0  0  0  0  0  0
   -2.1619   -9.4860    0.0000 C   0  0  0  0  0  0  0  0  0  0  0  0
    0.4894   -9.4078    0.0000 N   0  0  0  0  0  0  0  0  0  0  0  0
    4.2430   -7.8423    0.0000 S   0  0  0  0  0  0  0  0  0  0  0  0
  1  2  1  0
  2  3  1  0
  3  4  1  0
  4  5  1  0
  3  6  1  0
  6  7  1  0
  3  8  1  0
  8  9  2  0
  9 10  1  0
 10 11  2  0
 11 12  1  0
 12 13  1  0
 13 14  1  0
 14 15  2  0
 14 16  1  0
 16 17  1  0
 17 18  2  0
 18 19  1  0
 19 20  2  0
 20 21  1  0
 21 22  2  0
 22 23  1  0
 23 24  2  0
 24 25  1  0
 25 26  2  0
 26 27  1  0
 27 28  2  0
 12 29  1  0
 29 30  1  0
 30 31  2  0
 31 32  1  0
 32 33  1  0
 33 34  1  0
 34 35  1  0
 35 36  1  0
 36 37  2  0
 37 38  1  0
 38 39  2  0
 39 40  1  0
 35 41  1  0
 41 42  2  0
 41 43  1  0
 43 44  1  0
 44 45  2  0
 45 46  1  0
 46 47  2  0
 47 48  1  0
 48 49  2  0
 49 50  1  0
 50 51  2  0
 51 52  1  0
 52 53  2  0
 53 54  1  0
 54 55  2  0
 33 56  2  0
 11 57  1  0
 57  8  1  0
 28 14  1  0
 56 30  1  0
 22 17  1  0
 28 23  1  0
 40 36  1  0
 55 41  1  0
 49 44  1  0
 55 50  1  0
M  END
>  <Candidate_ID>  (323) 
CAND_R2_323

>  <Candidate_Name>  (323) 
BDO-trimethoxysilyl

>  <Parent_Seed_ID>  (323) 
TRAIN_122

>  <Parent_Name>  (323) 
BDO

>  <Transformation_Code>  (323) 
trimethoxysilyl

>  <Design_Family>  (323) 
P-N-Si-S

>  <Preparation_Type>  (323) 
Additive + Secondary Crosslinking

>  <Synthesis_Level>  (323) 
B

>  <Parent_Tanimoto_r3>  (323) 
0.7818181818181819

>  <Max_Train_Tanimoto_r3>  (323) 
0.7818181818181819

>  <Risk_Flags>  (323) 
none

$$$$
CAND_R2_324 | BDO-triethoxysilyl
     RDKit          2D

 60 68  0  0  0  0  0  0  0  0999 V2000
    9.7548  -11.5207    0.0000 C   0  0  0  0  0  0  0  0  0  0  0  0
    8.9160  -10.2771    0.0000 C   0  0  0  0  0  0  0  0  0  0  0  0
    7.4197  -10.3817    0.0000 O   0  0  0  0  0  0  0  0  0  0  0  0
    6.5809   -9.1382    0.0000 Si  0  0  0  0  0  4  0  0  0  0  0  0
    5.3373   -9.9770    0.0000 O   0  0  0  0  0  0  0  0  0  0  0  0
    5.4420  -11.4733    0.0000 C   0  0  0  0  0  0  0  0  0  0  0  0
    4.1984  -12.3121    0.0000 C   0  0  0  0  0  0  0  0  0  0  0  0
    7.8244   -8.2994    0.0000 O   0  0  0  0  0  0  0  0  0  0  0  0
    9.1726   -8.9570    0.0000 C   0  0  0  0  0  0  0  0  0  0  0  0
   10.4162   -8.1182    0.0000 C   0  0  0  0  0  0  0  0  0  0  0  0
    5.7421   -7.8946    0.0000 C   0  0  0  0  0  0  0  0  0  0  0  0
    6.2551   -6.4851    0.0000 C   0  0  0  0  0  0  0  0  0  0  0  0
    5.0731   -5.5616    0.0000 C   0  0  0  0  0  0  0  0  0  0  0  0
    3.8296   -6.4004    0.0000 C   0  0  0  0  0  0  0  0  0  0  0  0
    2.4200   -5.8874    0.0000 C   0  0  0  0  0  0  0  0  0  0  0  0
    2.1595   -4.4101    0.0000 C   0  0  0  0  0  0  0  0  0  0  0  0
    0.7500   -3.8971    0.0000 P   0  0  0  0  0  0  0  0  0  0  0  0
    0.4895   -5.3743    0.0000 O   0  0  0  0  0  0  0  0  0  0  0  0
    1.5000   -2.5981    0.0000 O   0  0  0  0  0  0  0  0  0  0  0  0
    0.7500   -1.2990    0.0000 C   0  0  0  0  0  0  0  0  0  0  0  0
    1.5000    0.0000    0.0000 C   0  0  0  0  0  0  0  0  0  0  0  0
    0.7500    1.2990    0.0000 C   0  0  0  0  0  0  0  0  0  0  0  0
   -0.7500    1.2990    0.0000 C   0  0  0  0  0  0  0  0  0  0  0  0
   -1.5000    0.0000    0.0000 C   0  0  0  0  0  0  0  0  0  0  0  0
   -0.7500   -1.2990    0.0000 C   0  0  0  0  0  0  0  0  0  0  0  0
   -1.5000   -2.5981    0.0000 C   0  0  0  0  0  0  0  0  0  0  0  0
   -3.0000   -2.5981    0.0000 C   0  0  0  0  0  0  0  0  0  0  0  0
   -3.7500   -3.8971    0.0000 C   0  0  0  0  0  0  0  0  0  0  0  0
   -3.0000   -5.1962    0.0000 C   0  0  0  0  0  0  0  0  0  0  0  0
   -1.5000   -5.1962    0.0000 C   0  0  0  0  0  0  0  0  0  0  0  0
   -0.7500   -3.8971    0.0000 C   0  0  0  0  0  0  0  0  0  0  0  0
    1.2709   -6.8515    0.0000 N   0  0  0  0  0  0  0  0  0  0  0  0
    1.5314   -8.3287    0.0000 C   0  0  0  0  0  0  0  0  0  0  0  0
    2.8796   -8.9863    0.0000 N   0  0  0  0  0  0  0  0  0  0  0  0
    2.6708  -10.4717    0.0000 N   0  0  0  0  0  0  0  0  0  0  0  0
    1.1936  -10.7322    0.0000 C   0  0  0  0  0  0  0  0  0  0  0  0
    0.5361  -12.0804    0.0000 N   0  0  0  0  0  0  0  0  0  0  0  0
   -0.9603  -12.1850    0.0000 C   0  0  0  0  0  0  0  0  0  0  0  0
   -1.6178  -13.5332    0.0000 C   0  0  0  0  0  0  0  0  0  0  0  0
   -0.9136  -14.8576    0.0000 C   0  0  0  0  0  0  0  0  0  0  0  0
   -1.9556  -15.9366    0.0000 C   0  0  0  0  0  0  0  0  0  0  0  0
   -3.3038  -15.2791    0.0000 C   0  0  0  0  0  0  0  0  0  0  0  0
   -3.0950  -13.7937    0.0000 S   0  0  0  0  0  0  0  0  0  0  0  0
   -1.7991  -10.9414    0.0000 P   0  0  0  0  0  0  0  0  0  0  0  0
   -0.4287  -10.3313    0.0000 O   0  0  0  0  0  0  0  0  0  0  0  0
   -2.8781  -11.9834    0.0000 O   0  0  0  0  0  0  0  0  0  0  0  0
   -4.3200  -11.5700    0.0000 C   0  0  0  0  0  0  0  0  0  0  0  0
   -5.3990  -12.6120    0.0000 C   0  0  0  0  0  0  0  0  0  0  0  0
   -6.8409  -12.1985    0.0000 C   0  0  0  0  0  0  0  0  0  0  0  0
   -7.2037  -10.7431    0.0000 C   0  0  0  0  0  0  0  0  0  0  0  0
   -6.1247   -9.7011    0.0000 C   0  0  0  0  0  0  0  0  0  0  0  0
   -4.6828  -10.1145    0.0000 C   0  0  0  0  0  0  0  0  0  0  0  0
   -3.6038   -9.0726    0.0000 C   0  0  0  0  0  0  0  0  0  0  0  0
   -3.9667   -7.6171    0.0000 C   0  0  0  0  0  0  0  0  0  0  0  0
   -2.8877   -6.5751    0.0000 C   0  0  0  0  0  0  0  0  0  0  0  0
   -1.4458   -6.9886    0.0000 C   0  0  0  0  0  0  0  0  0  0  0  0
   -1.0829   -8.4440    0.0000 C   0  0  0  0  0  0  0  0  0  0  0  0
   -2.1619   -9.4860    0.0000 C   0  0  0  0  0  0  0  0  0  0  0  0
    0.4894   -9.4078    0.0000 N   0  0  0  0  0  0  0  0  0  0  0  0
    4.2430   -7.8423    0.0000 S   0  0  0  0  0  0  0  0  0  0  0  0
  1  2  1  0
  2  3  1  0
  3  4  1  0
  4  5  1  0
  5  6  1  0
  6  7  1  0
  4  8  1  0
  8  9  1  0
  9 10  1  0
  4 11  1  0
 11 12  2  0
 12 13  1  0
 13 14  2  0
 14 15  1  0
 15 16  1  0
 16 17  1  0
 17 18  2  0
 17 19  1  0
 19 20  1  0
 20 21  2  0
 21 22  1  0
 22 23  2  0
 23 24  1  0
 24 25  2  0
 25 26  1  0
 26 27  2  0
 27 28  1  0
 28 29  2  0
 29 30  1  0
 30 31  2  0
 15 32  1  0
 32 33  1  0
 33 34  2  0
 34 35  1  0
 35 36  1  0
 36 37  1  0
 37 38  1  0
 38 39  1  0
 39 40  2  0
 40 41  1  0
 41 42  2  0
 42 43  1  0
 38 44  1  0
 44 45  2  0
 44 46  1  0
 46 47  1  0
 47 48  2  0
 48 49  1  0
 49 50  2  0
 50 51  1  0
 51 52  2  0
 52 53  1  0
 53 54  2  0
 54 55  1  0
 55 56  2  0
 56 57  1  0
 57 58  2  0
 36 59  2  0
 14 60  1  0
 60 11  1  0
 31 17  1  0
 59 33  1  0
 25 20  1  0
 31 26  1  0
 43 39  1  0
 58 44  1  0
 52 47  1  0
 58 53  1  0
M  END
>  <Candidate_ID>  (324) 
CAND_R2_324

>  <Candidate_Name>  (324) 
BDO-triethoxysilyl

>  <Parent_Seed_ID>  (324) 
TRAIN_122

>  <Parent_Name>  (324) 
BDO

>  <Transformation_Code>  (324) 
triethoxysilyl

>  <Design_Family>  (324) 
P-N-Si-S

>  <Preparation_Type>  (324) 
Additive + Secondary Crosslinking

>  <Synthesis_Level>  (324) 
B

>  <Parent_Tanimoto_r3>  (324) 
0.7610619469026548

>  <Max_Train_Tanimoto_r3>  (324) 
0.7610619469026548

>  <Risk_Flags>  (324) 
none

$$$$
CAND_R2_325 | BDO-disiloxane
     RDKit          2D

 58 66  0  0  0  0  0  0  0  0999 V2000
    9.0207  -11.7735    0.0000 C   0  0  0  0  0  0  0  0  0  0  0  0
    8.9160  -10.2771    0.0000 Si  0  0  0  0  0  4  0  0  0  0  0  0
    8.8114   -8.7808    0.0000 C   0  0  0  0  0  0  0  0  0  0  0  0
   10.4124  -10.1725    0.0000 C   0  0  0  0  0  0  0  0  0  0  0  0
    7.4197  -10.3817    0.0000 O   0  0  0  0  0  0  0  0  0  0  0  0
    6.5809   -9.1382    0.0000 Si  0  0  0  0  0  4  0  0  0  0  0  0
    7.8244   -8.2994    0.0000 C   0  0  0  0  0  0  0  0  0  0  0  0
    5.3373   -9.9770    0.0000 C   0  0  0  0  0  0  0  0  0  0  0  0
    5.7421   -7.8946    0.0000 C   0  0  0  0  0  0  0  0  0  0  0  0
    6.2551   -6.4851    0.0000 C   0  0  0  0  0  0  0  0  0  0  0  0
    5.0731   -5.5616    0.0000 C   0  0  0  0  0  0  0  0  0  0  0  0
    3.8296   -6.4004    0.0000 C   0  0  0  0  0  0  0  0  0  0  0  0
    2.4200   -5.8874    0.0000 C   0  0  0  0  0  0  0  0  0  0  0  0
    2.1595   -4.4101    0.0000 C   0  0  0  0  0  0  0  0  0  0  0  0
    0.7500   -3.8971    0.0000 P   0  0  0  0  0  0  0  0  0  0  0  0
    0.4895   -5.3743    0.0000 O   0  0  0  0  0  0  0  0  0  0  0  0
    1.5000   -2.5981    0.0000 O   0  0  0  0  0  0  0  0  0  0  0  0
    0.7500   -1.2990    0.0000 C   0  0  0  0  0  0  0  0  0  0  0  0
    1.5000    0.0000    0.0000 C   0  0  0  0  0  0  0  0  0  0  0  0
    0.7500    1.2990    0.0000 C   0  0  0  0  0  0  0  0  0  0  0  0
   -0.7500    1.2990    0.0000 C   0  0  0  0  0  0  0  0  0  0  0  0
   -1.5000    0.0000    0.0000 C   0  0  0  0  0  0  0  0  0  0  0  0
   -0.7500   -1.2990    0.0000 C   0  0  0  0  0  0  0  0  0  0  0  0
   -1.5000   -2.5981    0.0000 C   0  0  0  0  0  0  0  0  0  0  0  0
   -3.0000   -2.5981    0.0000 C   0  0  0  0  0  0  0  0  0  0  0  0
   -3.7500   -3.8971    0.0000 C   0  0  0  0  0  0  0  0  0  0  0  0
   -3.0000   -5.1962    0.0000 C   0  0  0  0  0  0  0  0  0  0  0  0
   -1.5000   -5.1962    0.0000 C   0  0  0  0  0  0  0  0  0  0  0  0
   -0.7500   -3.8971    0.0000 C   0  0  0  0  0  0  0  0  0  0  0  0
    1.2709   -6.8515    0.0000 N   0  0  0  0  0  0  0  0  0  0  0  0
    1.5314   -8.3287    0.0000 C   0  0  0  0  0  0  0  0  0  0  0  0
    2.8796   -8.9863    0.0000 N   0  0  0  0  0  0  0  0  0  0  0  0
    2.6708  -10.4717    0.0000 N   0  0  0  0  0  0  0  0  0  0  0  0
    1.1936  -10.7322    0.0000 C   0  0  0  0  0  0  0  0  0  0  0  0
    0.5361  -12.0804    0.0000 N   0  0  0  0  0  0  0  0  0  0  0  0
   -0.9603  -12.1850    0.0000 C   0  0  0  0  0  0  0  0  0  0  0  0
   -1.6178  -13.5332    0.0000 C   0  0  0  0  0  0  0  0  0  0  0  0
   -0.9136  -14.8576    0.0000 C   0  0  0  0  0  0  0  0  0  0  0  0
   -1.9556  -15.9366    0.0000 C   0  0  0  0  0  0  0  0  0  0  0  0
   -3.3038  -15.2791    0.0000 C   0  0  0  0  0  0  0  0  0  0  0  0
   -3.0950  -13.7937    0.0000 S   0  0  0  0  0  0  0  0  0  0  0  0
   -1.7991  -10.9414    0.0000 P   0  0  0  0  0  0  0  0  0  0  0  0
   -0.4287  -10.3313    0.0000 O   0  0  0  0  0  0  0  0  0  0  0  0
   -2.8781  -11.9834    0.0000 O   0  0  0  0  0  0  0  0  0  0  0  0
   -4.3200  -11.5700    0.0000 C   0  0  0  0  0  0  0  0  0  0  0  0
   -5.3990  -12.6120    0.0000 C   0  0  0  0  0  0  0  0  0  0  0  0
   -6.8409  -12.1985    0.0000 C   0  0  0  0  0  0  0  0  0  0  0  0
   -7.2037  -10.7431    0.0000 C   0  0  0  0  0  0  0  0  0  0  0  0
   -6.1247   -9.7011    0.0000 C   0  0  0  0  0  0  0  0  0  0  0  0
   -4.6828  -10.1145    0.0000 C   0  0  0  0  0  0  0  0  0  0  0  0
   -3.6038   -9.0726    0.0000 C   0  0  0  0  0  0  0  0  0  0  0  0
   -3.9667   -7.6171    0.0000 C   0  0  0  0  0  0  0  0  0  0  0  0
   -2.8877   -6.5751    0.0000 C   0  0  0  0  0  0  0  0  0  0  0  0
   -1.4458   -6.9886    0.0000 C   0  0  0  0  0  0  0  0  0  0  0  0
   -1.0829   -8.4440    0.0000 C   0  0  0  0  0  0  0  0  0  0  0  0
   -2.1619   -9.4860    0.0000 C   0  0  0  0  0  0  0  0  0  0  0  0
    0.4894   -9.4078    0.0000 N   0  0  0  0  0  0  0  0  0  0  0  0
    4.2430   -7.8423    0.0000 S   0  0  0  0  0  0  0  0  0  0  0  0
  1  2  1  0
  2  3  1  0
  2  4  1  0
  2  5  1  0
  5  6  1  0
  6  7  1  0
  6  8  1  0
  6  9  1  0
  9 10  2  0
 10 11  1  0
 11 12  2  0
 12 13  1  0
 13 14  1  0
 14 15  1  0
 15 16  2  0
 15 17  1  0
 17 18  1  0
 18 19  2  0
 19 20  1  0
 20 21  2  0
 21 22  1  0
 22 23  2  0
 23 24  1  0
 24 25  2  0
 25 26  1  0
 26 27  2  0
 27 28  1  0
 28 29  2  0
 13 30  1  0
 30 31  1  0
 31 32  2  0
 32 33  1  0
 33 34  1  0
 34 35  1  0
 35 36  1  0
 36 37  1  0
 37 38  2  0
 38 39  1  0
 39 40  2  0
 40 41  1  0
 36 42  1  0
 42 43  2  0
 42 44  1  0
 44 45  1  0
 45 46  2  0
 46 47  1  0
 47 48  2  0
 48 49  1  0
 49 50  2  0
 50 51  1  0
 51 52  2  0
 52 53  1  0
 53 54  2  0
 54 55  1  0
 55 56  2  0
 34 57  2  0
 12 58  1  0
 58  9  1  0
 29 15  1  0
 57 31  1  0
 23 18  1  0
 29 24  1  0
 41 37  1  0
 56 42  1  0
 50 45  1  0
 56 51  1  0
M  END
>  <Candidate_ID>  (325) 
CAND_R2_325

>  <Candidate_Name>  (325) 
BDO-disiloxane

>  <Parent_Seed_ID>  (325) 
TRAIN_122

>  <Parent_Name>  (325) 
BDO

>  <Transformation_Code>  (325) 
disiloxane

>  <Design_Family>  (325) 
P-N-Si-S

>  <Preparation_Type>  (325) 
Additive

>  <Synthesis_Level>  (325) 
B

>  <Parent_Tanimoto_r3>  (325) 
0.7678571428571429

>  <Max_Train_Tanimoto_r3>  (325) 
0.7678571428571429

>  <Risk_Flags>  (325) 
none

$$$$
CAND_R2_326 | BDO-glycidyloxy
     RDKit          2D

 55 64  0  0  0  0  0  0  0  0999 V2000
   10.9720   -6.1824    0.0000 O   0  0  0  0  0  0  0  0  0  0  0  0
   12.1855   -5.3008    0.0000 P   0  0  0  0  0  0  0  0  0  0  0  0
   11.1065   -4.2588    0.0000 C   0  0  0  0  0  0  0  0  0  0  0  0
    9.6646   -4.6722    0.0000 C   0  0  0  0  0  0  0  0  0  0  0  0
    8.5856   -3.6302    0.0000 N   0  0  0  0  0  0  0  0  0  0  0  0
    7.1437   -4.0437    0.0000 C   0  0  0  0  0  0  0  0  0  0  0  0
    6.6307   -5.4532    0.0000 N   0  0  0  0  0  0  0  0  0  0  0  0
    5.1316   -5.4009    0.0000 N   0  0  0  0  0  0  0  0  0  0  0  0
    4.7181   -3.9590    0.0000 C   0  0  0  0  0  0  0  0  0  0  0  0
    3.3086   -3.4460    0.0000 N   0  0  0  0  0  0  0  0  0  0  0  0
    2.1595   -4.4101    0.0000 C   0  0  0  0  0  0  0  0  0  0  0  0
    2.4200   -5.8874    0.0000 C   0  0  0  0  0  0  0  0  0  0  0  0
    3.7682   -6.5449    0.0000 C   0  0  0  0  0  0  0  0  0  0  0  0
    3.5594   -8.0303    0.0000 C   0  0  0  0  0  0  0  0  0  0  0  0
    2.0822   -8.2908    0.0000 C   0  0  0  0  0  0  0  0  0  0  0  0
    1.3780   -6.9664    0.0000 S   0  0  0  0  0  0  0  0  0  0  0  0
    0.7500   -3.8971    0.0000 P   0  0  0  0  0  0  0  0  0  0  0  0
    0.4895   -5.3743    0.0000 O   0  0  0  0  0  0  0  0  0  0  0  0
    1.5000   -2.5981    0.0000 O   0  0  0  0  0  0  0  0  0  0  0  0
    0.7500   -1.2990    0.0000 C   0  0  0  0  0  0  0  0  0  0  0  0
    1.5000    0.0000    0.0000 C   0  0  0  0  0  0  0  0  0  0  0  0
    0.7500    1.2990    0.0000 C   0  0  0  0  0  0  0  0  0  0  0  0
   -0.7500    1.2990    0.0000 C   0  0  0  0  0  0  0  0  0  0  0  0
   -1.5000    0.0000    0.0000 C   0  0  0  0  0  0  0  0  0  0  0  0
   -0.7500   -1.2990    0.0000 C   0  0  0  0  0  0  0  0  0  0  0  0
   -1.5000   -2.5981    0.0000 C   0  0  0  0  0  0  0  0  0  0  0  0
   -3.0000   -2.5981    0.0000 C   0  0  0  0  0  0  0  0  0  0  0  0
   -3.7500   -3.8971    0.0000 C   0  0  0  0  0  0  0  0  0  0  0  0
   -3.0000   -5.1962    0.0000 C   0  0  0  0  0  0  0  0  0  0  0  0
   -1.5000   -5.1962    0.0000 C   0  0  0  0  0  0  0  0  0  0  0  0
   -0.7500   -3.8971    0.0000 C   0  0  0  0  0  0  0  0  0  0  0  0
    5.9617   -3.1202    0.0000 N   0  0  0  0  0  0  0  0  0  0  0  0
    9.3017   -6.1277    0.0000 C   0  0  0  0  0  0  0  0  0  0  0  0
   10.2659   -7.2767    0.0000 C   0  0  0  0  0  0  0  0  0  0  0  0
    9.4710   -8.5488    0.0000 C   0  0  0  0  0  0  0  0  0  0  0  0
    8.0156   -8.1859    0.0000 C   0  0  0  0  0  0  0  0  0  0  0  0
    6.8665   -9.1501    0.0000 O   0  0  0  0  0  0  0  0  0  0  0  0
    7.1270  -10.6273    0.0000 C   0  0  0  0  0  0  0  0  0  0  0  0
    5.9779  -11.5915    0.0000 C   0  0  0  0  0  0  0  0  0  0  0  0
    5.4649  -13.0010    0.0000 C   0  0  0  0  0  0  0  0  0  0  0  0
    4.5007  -11.8520    0.0000 O   0  0  0  0  0  0  0  0  0  0  0  0
    7.9110   -6.6896    0.0000 S   0  0  0  0  0  0  0  0  0  0  0  0
   13.0243   -4.0572    0.0000 O   0  0  0  0  0  0  0  0  0  0  0  0
   14.5207   -4.1618    0.0000 C   0  0  0  0  0  0  0  0  0  0  0  0
   15.3594   -2.9183    0.0000 C   0  0  0  0  0  0  0  0  0  0  0  0
   16.8558   -3.0229    0.0000 C   0  0  0  0  0  0  0  0  0  0  0  0
   17.5133   -4.3711    0.0000 C   0  0  0  0  0  0  0  0  0  0  0  0
   16.6746   -5.6147    0.0000 C   0  0  0  0  0  0  0  0  0  0  0  0
   15.1782   -5.5100    0.0000 C   0  0  0  0  0  0  0  0  0  0  0  0
   14.3394   -6.7536    0.0000 C   0  0  0  0  0  0  0  0  0  0  0  0
   14.9970   -8.1018    0.0000 C   0  0  0  0  0  0  0  0  0  0  0  0
   14.1582   -9.3453    0.0000 C   0  0  0  0  0  0  0  0  0  0  0  0
   12.6618   -9.2407    0.0000 C   0  0  0  0  0  0  0  0  0  0  0  0
   12.0043   -7.8925    0.0000 C   0  0  0  0  0  0  0  0  0  0  0  0
   12.8431   -6.6490    0.0000 C   0  0  0  0  0  0  0  0  0  0  0  0
  1  2  2  0
  2  3  1  0
  3  4  1  0
  4  5  1  0
  5  6  1  0
  6  7  2  0
  7  8  1  0
  8  9  1  0
  9 10  1  0
 10 11  1  0
 11 12  1  0
 12 13  2  0
 13 14  1  0
 14 15  2  0
 15 16  1  0
 11 17  1  0
 17 18  2  0
 17 19  1  0
 19 20  1  0
 20 21  2  0
 21 22  1  0
 22 23  2  0
 23 24  1  0
 24 25  2  0
 25 26  1  0
 26 27  2  0
 27 28  1  0
 28 29  2  0
 29 30  1  0
 30 31  2  0
  9 32  2  0
  4 33  1  0
 33 34  2  0
 34 35  1  0
 35 36  2  0
 36 37  1  0
 37 38  1  0
 38 39  1  0
 39 40  1  0
 40 41  1  0
 36 42  1  0
  2 43  1  0
 43 44  1  0
 44 45  2  0
 45 46  1  0
 46 47  2  0
 47 48  1  0
 48 49  2  0
 49 50  1  0
 50 51  2  0
 51 52  1  0
 52 53  2  0
 53 54  1  0
 54 55  2  0
 55  2  1  0
 32  6  1  0
 42 33  1  0
 49 44  1  0
 55 50  1  0
 16 12  1  0
 31 17  1  0
 41 39  1  0
 25 20  1  0
 31 26  1  0
M  END
>  <Candidate_ID>  (326) 
CAND_R2_326

>  <Candidate_Name>  (326) 
BDO-glycidyloxy

>  <Parent_Seed_ID>  (326) 
TRAIN_122

>  <Parent_Name>  (326) 
BDO

>  <Transformation_Code>  (326) 
glycidyloxy

>  <Design_Family>  (326) 
P-N-S

>  <Preparation_Type>  (326) 
Co-curing

>  <Synthesis_Level>  (326) 
B

>  <Parent_Tanimoto_r3>  (326) 
0.7350427350427351

>  <Max_Train_Tanimoto_r3>  (326) 
0.7350427350427351

>  <Risk_Flags>  (326) 
none

$$$$
CAND_R2_327 | BDO-diaminotriazine
     RDKit          2D

 58 67  0  0  0  0  0  0  0  0999 V2000
    9.8647   -2.7473    0.0000 N   0  0  0  0  0  0  0  0  0  0  0  0
    9.5018   -4.2027    0.0000 C   0  0  0  0  0  0  0  0  0  0  0  0
   10.5808   -5.2447    0.0000 N   0  0  0  0  0  0  0  0  0  0  0  0
   10.2179   -6.7002    0.0000 C   0  0  0  0  0  0  0  0  0  0  0  0
   11.2969   -7.7422    0.0000 N   0  0  0  0  0  0  0  0  0  0  0  0
    8.7760   -7.1136    0.0000 N   0  0  0  0  0  0  0  0  0  0  0  0
    7.6970   -6.0716    0.0000 C   0  0  0  0  0  0  0  0  0  0  0  0
    6.2551   -6.4851    0.0000 C   0  0  0  0  0  0  0  0  0  0  0  0
    5.7421   -7.8946    0.0000 C   0  0  0  0  0  0  0  0  0  0  0  0
    4.2430   -7.8423    0.0000 C   0  0  0  0  0  0  0  0  0  0  0  0
    3.8296   -6.4004    0.0000 C   0  0  0  0  0  0  0  0  0  0  0  0
    2.4200   -5.8874    0.0000 C   0  0  0  0  0  0  0  0  0  0  0  0
    2.1595   -4.4101    0.0000 C   0  0  0  0  0  0  0  0  0  0  0  0
    0.7500   -3.8971    0.0000 P   0  0  0  0  0  0  0  0  0  0  0  0
    0.4895   -5.3743    0.0000 O   0  0  0  0  0  0  0  0  0  0  0  0
    1.5000   -2.5981    0.0000 O   0  0  0  0  0  0  0  0  0  0  0  0
    0.7500   -1.2990    0.0000 C   0  0  0  0  0  0  0  0  0  0  0  0
    1.5000    0.0000    0.0000 C   0  0  0  0  0  0  0  0  0  0  0  0
    0.7500    1.2990    0.0000 C   0  0  0  0  0  0  0  0  0  0  0  0
   -0.7500    1.2990    0.0000 C   0  0  0  0  0  0  0  0  0  0  0  0
   -1.5000    0.0000    0.0000 C   0  0  0  0  0  0  0  0  0  0  0  0
   -0.7500   -1.2990    0.0000 C   0  0  0  0  0  0  0  0  0  0  0  0
   -1.5000   -2.5981    0.0000 C   0  0  0  0  0  0  0  0  0  0  0  0
   -3.0000   -2.5981    0.0000 C   0  0  0  0  0  0  0  0  0  0  0  0
   -3.7500   -3.8971    0.0000 C   0  0  0  0  0  0  0  0  0  0  0  0
   -3.0000   -5.1962    0.0000 C   0  0  0  0  0  0  0  0  0  0  0  0
   -1.5000   -5.1962    0.0000 C   0  0  0  0  0  0  0  0  0  0  0  0
   -0.7500   -3.8971    0.0000 C   0  0  0  0  0  0  0  0  0  0  0  0
    1.2709   -6.8515    0.0000 N   0  0  0  0  0  0  0  0  0  0  0  0
    1.5314   -8.3287    0.0000 C   0  0  0  0  0  0  0  0  0  0  0  0
    2.8796   -8.9863    0.0000 N   0  0  0  0  0  0  0  0  0  0  0  0
    2.6708  -10.4717    0.0000 N   0  0  0  0  0  0  0  0  0  0  0  0
    1.1936  -10.7322    0.0000 C   0  0  0  0  0  0  0  0  0  0  0  0
    0.5361  -12.0804    0.0000 N   0  0  0  0  0  0  0  0  0  0  0  0
   -0.9603  -12.1850    0.0000 C   0  0  0  0  0  0  0  0  0  0  0  0
   -1.6178  -13.5332    0.0000 C   0  0  0  0  0  0  0  0  0  0  0  0
   -0.9136  -14.8576    0.0000 C   0  0  0  0  0  0  0  0  0  0  0  0
   -1.9556  -15.9366    0.0000 C   0  0  0  0  0  0  0  0  0  0  0  0
   -3.3038  -15.2791    0.0000 C   0  0  0  0  0  0  0  0  0  0  0  0
   -3.0950  -13.7937    0.0000 S   0  0  0  0  0  0  0  0  0  0  0  0
   -1.7991  -10.9414    0.0000 P   0  0  0  0  0  0  0  0  0  0  0  0
   -0.4287  -10.3313    0.0000 O   0  0  0  0  0  0  0  0  0  0  0  0
   -2.8781  -11.9834    0.0000 O   0  0  0  0  0  0  0  0  0  0  0  0
   -4.3200  -11.5700    0.0000 C   0  0  0  0  0  0  0  0  0  0  0  0
   -5.3990  -12.6120    0.0000 C   0  0  0  0  0  0  0  0  0  0  0  0
   -6.8409  -12.1985    0.0000 C   0  0  0  0  0  0  0  0  0  0  0  0
   -7.2037  -10.7431    0.0000 C   0  0  0  0  0  0  0  0  0  0  0  0
   -6.1247   -9.7011    0.0000 C   0  0  0  0  0  0  0  0  0  0  0  0
   -4.6828  -10.1145    0.0000 C   0  0  0  0  0  0  0  0  0  0  0  0
   -3.6038   -9.0726    0.0000 C   0  0  0  0  0  0  0  0  0  0  0  0
   -3.9667   -7.6171    0.0000 C   0  0  0  0  0  0  0  0  0  0  0  0
   -2.8877   -6.5751    0.0000 C   0  0  0  0  0  0  0  0  0  0  0  0
   -1.4458   -6.9886    0.0000 C   0  0  0  0  0  0  0  0  0  0  0  0
   -1.0829   -8.4440    0.0000 C   0  0  0  0  0  0  0  0  0  0  0  0
   -2.1619   -9.4860    0.0000 C   0  0  0  0  0  0  0  0  0  0  0  0
    0.4894   -9.4078    0.0000 N   0  0  0  0  0  0  0  0  0  0  0  0
    5.0731   -5.5616    0.0000 S   0  0  0  0  0  0  0  0  0  0  0  0
    8.0599   -4.6162    0.0000 N   0  0  0  0  0  0  0  0  0  0  0  0
  1  2  1  0
  2  3  2  0
  3  4  1  0
  4  5  1  0
  4  6  2  0
  6  7  1  0
  7  8  1  0
  8  9  2  0
  9 10  1  0
 10 11  2  0
 11 12  1  0
 12 13  1  0
 13 14  1  0
 14 15  2  0
 14 16  1  0
 16 17  1  0
 17 18  2  0
 18 19  1  0
 19 20  2  0
 20 21  1  0
 21 22  2  0
 22 23  1  0
 23 24  2  0
 24 25  1  0
 25 26  2  0
 26 27  1  0
 27 28  2  0
 12 29  1  0
 29 30  1  0
 30 31  2  0
 31 32  1  0
 32 33  1  0
 33 34  1  0
 34 35  1  0
 35 36  1  0
 36 37  2  0
 37 38  1  0
 38 39  2  0
 39 40  1  0
 35 41  1  0
 41 42  2  0
 41 43  1  0
 43 44  1  0
 44 45  2  0
 45 46  1  0
 46 47  2  0
 47 48  1  0
 48 49  2  0
 49 50  1  0
 50 51  2  0
 51 52  1  0
 52 53  2  0
 53 54  1  0
 54 55  2  0
 33 56  2  0
 11 57  1  0
  7 58  2  0
 58  2  1  0
 57  8  1  0
 28 14  1  0
 56 30  1  0
 22 17  1  0
 28 23  1  0
 40 36  1  0
 55 41  1  0
 49 44  1  0
 55 50  1  0
M  END
>  <Candidate_ID>  (327) 
CAND_R2_327

>  <Candidate_Name>  (327) 
BDO-diaminotriazine

>  <Parent_Seed_ID>  (327) 
TRAIN_122

>  <Parent_Name>  (327) 
BDO

>  <Transformation_Code>  (327) 
diaminotriazine

>  <Design_Family>  (327) 
P-N-S

>  <Preparation_Type>  (327) 
Co-curing

>  <Synthesis_Level>  (327) 
B

>  <Parent_Tanimoto_r3>  (327) 
0.7678571428571429

>  <Max_Train_Tanimoto_r3>  (327) 
0.7678571428571429

>  <Risk_Flags>  (327) 
none

$$$$
CAND_R2_328 | BDO-piperazine
     RDKit          2D

 56 65  0  0  0  0  0  0  0  0999 V2000
   10.9720   -6.1824    0.0000 O   0  0  0  0  0  0  0  0  0  0  0  0
   12.1855   -5.3008    0.0000 P   0  0  0  0  0  0  0  0  0  0  0  0
   11.1065   -4.2588    0.0000 C   0  0  0  0  0  0  0  0  0  0  0  0
    9.6646   -4.6722    0.0000 C   0  0  0  0  0  0  0  0  0  0  0  0
    8.5856   -3.6302    0.0000 N   0  0  0  0  0  0  0  0  0  0  0  0
    7.1437   -4.0437    0.0000 C   0  0  0  0  0  0  0  0  0  0  0  0
    6.6307   -5.4532    0.0000 N   0  0  0  0  0  0  0  0  0  0  0  0
    5.1316   -5.4009    0.0000 N   0  0  0  0  0  0  0  0  0  0  0  0
    4.7181   -3.9590    0.0000 C   0  0  0  0  0  0  0  0  0  0  0  0
    3.3086   -3.4460    0.0000 N   0  0  0  0  0  0  0  0  0  0  0  0
    2.1595   -4.4101    0.0000 C   0  0  0  0  0  0  0  0  0  0  0  0
    2.4200   -5.8874    0.0000 C   0  0  0  0  0  0  0  0  0  0  0  0
    3.7682   -6.5449    0.0000 C   0  0  0  0  0  0  0  0  0  0  0  0
    3.5594   -8.0303    0.0000 C   0  0  0  0  0  0  0  0  0  0  0  0
    2.0822   -8.2908    0.0000 C   0  0  0  0  0  0  0  0  0  0  0  0
    1.3780   -6.9664    0.0000 S   0  0  0  0  0  0  0  0  0  0  0  0
    0.7500   -3.8971    0.0000 P   0  0  0  0  0  0  0  0  0  0  0  0
    0.4895   -5.3743    0.0000 O   0  0  0  0  0  0  0  0  0  0  0  0
    1.5000   -2.5981    0.0000 O   0  0  0  0  0  0  0  0  0  0  0  0
    0.7500   -1.2990    0.0000 C   0  0  0  0  0  0  0  0  0  0  0  0
    1.5000    0.0000    0.0000 C   0  0  0  0  0  0  0  0  0  0  0  0
    0.7500    1.2990    0.0000 C   0  0  0  0  0  0  0  0  0  0  0  0
   -0.7500    1.2990    0.0000 C   0  0  0  0  0  0  0  0  0  0  0  0
   -1.5000    0.0000    0.0000 C   0  0  0  0  0  0  0  0  0  0  0  0
   -0.7500   -1.2990    0.0000 C   0  0  0  0  0  0  0  0  0  0  0  0
   -1.5000   -2.5981    0.0000 C   0  0  0  0  0  0  0  0  0  0  0  0
   -3.0000   -2.5981    0.0000 C   0  0  0  0  0  0  0  0  0  0  0  0
   -3.7500   -3.8971    0.0000 C   0  0  0  0  0  0  0  0  0  0  0  0
   -3.0000   -5.1962    0.0000 C   0  0  0  0  0  0  0  0  0  0  0  0
   -1.5000   -5.1962    0.0000 C   0  0  0  0  0  0  0  0  0  0  0  0
   -0.7500   -3.8971    0.0000 C   0  0  0  0  0  0  0  0  0  0  0  0
    5.9617   -3.1202    0.0000 N   0  0  0  0  0  0  0  0  0  0  0  0
    9.3017   -6.1277    0.0000 C   0  0  0  0  0  0  0  0  0  0  0  0
   10.2659   -7.2767    0.0000 C   0  0  0  0  0  0  0  0  0  0  0  0
    9.4710   -8.5488    0.0000 C   0  0  0  0  0  0  0  0  0  0  0  0
    8.0156   -8.1859    0.0000 C   0  0  0  0  0  0  0  0  0  0  0  0
    6.8665   -9.1501    0.0000 N   0  0  0  0  0  0  0  0  0  0  0  0
    5.4570   -8.6371    0.0000 C   0  0  0  0  0  0  0  0  0  0  0  0
    4.3079   -9.6013    0.0000 C   0  0  0  0  0  0  0  0  0  0  0  0
    4.5684  -11.0785    0.0000 N   0  0  0  0  0  0  0  0  0  0  0  0
    5.9779  -11.5915    0.0000 C   0  0  0  0  0  0  0  0  0  0  0  0
    7.1270  -10.6273    0.0000 C   0  0  0  0  0  0  0  0  0  0  0  0
    7.9110   -6.6896    0.0000 S   0  0  0  0  0  0  0  0  0  0  0  0
   13.0243   -4.0572    0.0000 O   0  0  0  0  0  0  0  0  0  0  0  0
   14.5207   -4.1618    0.0000 C   0  0  0  0  0  0  0  0  0  0  0  0
   15.3594   -2.9183    0.0000 C   0  0  0  0  0  0  0  0  0  0  0  0
   16.8558   -3.0229    0.0000 C   0  0  0  0  0  0  0  0  0  0  0  0
   17.5133   -4.3711    0.0000 C   0  0  0  0  0  0  0  0  0  0  0  0
   16.6746   -5.6147    0.0000 C   0  0  0  0  0  0  0  0  0  0  0  0
   15.1782   -5.5100    0.0000 C   0  0  0  0  0  0  0  0  0  0  0  0
   14.3394   -6.7536    0.0000 C   0  0  0  0  0  0  0  0  0  0  0  0
   14.9970   -8.1018    0.0000 C   0  0  0  0  0  0  0  0  0  0  0  0
   14.1582   -9.3453    0.0000 C   0  0  0  0  0  0  0  0  0  0  0  0
   12.6618   -9.2407    0.0000 C   0  0  0  0  0  0  0  0  0  0  0  0
   12.0043   -7.8925    0.0000 C   0  0  0  0  0  0  0  0  0  0  0  0
   12.8431   -6.6490    0.0000 C   0  0  0  0  0  0  0  0  0  0  0  0
  1  2  2  0
  2  3  1  0
  3  4  1  0
  4  5  1  0
  5  6  1  0
  6  7  2  0
  7  8  1  0
  8  9  1  0
  9 10  1  0
 10 11  1  0
 11 12  1  0
 12 13  2  0
 13 14  1  0
 14 15  2  0
 15 16  1  0
 11 17  1  0
 17 18  2  0
 17 19  1  0
 19 20  1  0
 20 21  2  0
 21 22  1  0
 22 23  2  0
 23 24  1  0
 24 25  2  0
 25 26  1  0
 26 27  2  0
 27 28  1  0
 28 29  2  0
 29 30  1  0
 30 31  2  0
  9 32  2  0
  4 33  1  0
 33 34  2  0
 34 35  1  0
 35 36  2  0
 36 37  1  0
 37 38  1  0
 38 39  1  0
 39 40  1  0
 40 41  1  0
 41 42  1  0
 36 43  1  0
  2 44  1  0
 44 45  1  0
 45 46  2  0
 46 47  1  0
 47 48  2  0
 48 49  1  0
 49 50  2  0
 50 51  1  0
 51 52  2  0
 52 53  1  0
 53 54  2  0
 54 55  1  0
 55 56  2  0
 56  2  1  0
 32  6  1  0
 43 33  1  0
 50 45  1  0
 56 51  1  0
 16 12  1  0
 31 17  1  0
 42 37  1  0
 25 20  1  0
 31 26  1  0
M  END
>  <Candidate_ID>  (328) 
CAND_R2_328

>  <Candidate_Name>  (328) 
BDO-piperazine

>  <Parent_Seed_ID>  (328) 
TRAIN_122

>  <Parent_Name>  (328) 
BDO

>  <Transformation_Code>  (328) 
piperazine

>  <Design_Family>  (328) 
P-N-S

>  <Preparation_Type>  (328) 
Co-curing

>  <Synthesis_Level>  (328) 
B

>  <Parent_Tanimoto_r3>  (328) 
0.7413793103448276

>  <Max_Train_Tanimoto_r3>  (328) 
0.7413793103448276

>  <Risk_Flags>  (328) 
none

$$$$
CAND_R2_329 | BDO-benzamide-linker
     RDKit          2D

 59 68  0  0  0  0  0  0  0  0999 V2000
    8.4131   -8.5691    0.0000 O   0  0  0  0  0  0  0  0  0  0  0  0
    8.7760   -7.1136    0.0000 C   0  0  0  0  0  0  0  0  0  0  0  0
    7.6970   -6.0716    0.0000 N   0  0  0  0  0  0  0  0  0  0  0  0
    6.2551   -6.4851    0.0000 C   0  0  0  0  0  0  0  0  0  0  0  0
    5.7421   -7.8946    0.0000 C   0  0  0  0  0  0  0  0  0  0  0  0
    4.2430   -7.8423    0.0000 C   0  0  0  0  0  0  0  0  0  0  0  0
    3.8296   -6.4004    0.0000 C   0  0  0  0  0  0  0  0  0  0  0  0
    2.4200   -5.8874    0.0000 C   0  0  0  0  0  0  0  0  0  0  0  0
    2.1595   -4.4101    0.0000 C   0  0  0  0  0  0  0  0  0  0  0  0
    0.7500   -3.8971    0.0000 P   0  0  0  0  0  0  0  0  0  0  0  0
    0.4895   -5.3743    0.0000 O   0  0  0  0  0  0  0  0  0  0  0  0
    1.5000   -2.5981    0.0000 O   0  0  0  0  0  0  0  0  0  0  0  0
    0.7500   -1.2990    0.0000 C   0  0  0  0  0  0  0  0  0  0  0  0
    1.5000    0.0000    0.0000 C   0  0  0  0  0  0  0  0  0  0  0  0
    0.7500    1.2990    0.0000 C   0  0  0  0  0  0  0  0  0  0  0  0
   -0.7500    1.2990    0.0000 C   0  0  0  0  0  0  0  0  0  0  0  0
   -1.5000    0.0000    0.0000 C   0  0  0  0  0  0  0  0  0  0  0  0
   -0.7500   -1.2990    0.0000 C   0  0  0  0  0  0  0  0  0  0  0  0
   -1.5000   -2.5981    0.0000 C   0  0  0  0  0  0  0  0  0  0  0  0
   -3.0000   -2.5981    0.0000 C   0  0  0  0  0  0  0  0  0  0  0  0
   -3.7500   -3.8971    0.0000 C   0  0  0  0  0  0  0  0  0  0  0  0
   -3.0000   -5.1962    0.0000 C   0  0  0  0  0  0  0  0  0  0  0  0
   -1.5000   -5.1962    0.0000 C   0  0  0  0  0  0  0  0  0  0  0  0
   -0.7500   -3.8971    0.0000 C   0  0  0  0  0  0  0  0  0  0  0  0
    1.2709   -6.8515    0.0000 N   0  0  0  0  0  0  0  0  0  0  0  0
    1.5314   -8.3287    0.0000 C   0  0  0  0  0  0  0  0  0  0  0  0
    2.8796   -8.9863    0.0000 N   0  0  0  0  0  0  0  0  0  0  0  0
    2.6708  -10.4717    0.0000 N   0  0  0  0  0  0  0  0  0  0  0  0
    1.1936  -10.7322    0.0000 C   0  0  0  0  0  0  0  0  0  0  0  0
    0.5361  -12.0804    0.0000 N   0  0  0  0  0  0  0  0  0  0  0  0
   -0.9603  -12.1850    0.0000 C   0  0  0  0  0  0  0  0  0  0  0  0
   -1.6178  -13.5332    0.0000 C   0  0  0  0  0  0  0  0  0  0  0  0
   -0.9136  -14.8576    0.0000 C   0  0  0  0  0  0  0  0  0  0  0  0
   -1.9556  -15.9366    0.0000 C   0  0  0  0  0  0  0  0  0  0  0  0
   -3.3038  -15.2791    0.0000 C   0  0  0  0  0  0  0  0  0  0  0  0
   -3.0950  -13.7937    0.0000 S   0  0  0  0  0  0  0  0  0  0  0  0
   -1.7991  -10.9414    0.0000 P   0  0  0  0  0  0  0  0  0  0  0  0
   -0.4287  -10.3313    0.0000 O   0  0  0  0  0  0  0  0  0  0  0  0
   -2.8781  -11.9834    0.0000 O   0  0  0  0  0  0  0  0  0  0  0  0
   -4.3200  -11.5700    0.0000 C   0  0  0  0  0  0  0  0  0  0  0  0
   -5.3990  -12.6120    0.0000 C   0  0  0  0  0  0  0  0  0  0  0  0
   -6.8409  -12.1985    0.0000 C   0  0  0  0  0  0  0  0  0  0  0  0
   -7.2037  -10.7431    0.0000 C   0  0  0  0  0  0  0  0  0  0  0  0
   -6.1247   -9.7011    0.0000 C   0  0  0  0  0  0  0  0  0  0  0  0
   -4.6828  -10.1145    0.0000 C   0  0  0  0  0  0  0  0  0  0  0  0
   -3.6038   -9.0726    0.0000 C   0  0  0  0  0  0  0  0  0  0  0  0
   -3.9667   -7.6171    0.0000 C   0  0  0  0  0  0  0  0  0  0  0  0
   -2.8877   -6.5751    0.0000 C   0  0  0  0  0  0  0  0  0  0  0  0
   -1.4458   -6.9886    0.0000 C   0  0  0  0  0  0  0  0  0  0  0  0
   -1.0829   -8.4440    0.0000 C   0  0  0  0  0  0  0  0  0  0  0  0
   -2.1619   -9.4860    0.0000 C   0  0  0  0  0  0  0  0  0  0  0  0
    0.4894   -9.4078    0.0000 N   0  0  0  0  0  0  0  0  0  0  0  0
    5.0731   -5.5616    0.0000 S   0  0  0  0  0  0  0  0  0  0  0  0
   10.2179   -6.7002    0.0000 C   0  0  0  0  0  0  0  0  0  0  0  0
   11.2969   -7.7422    0.0000 C   0  0  0  0  0  0  0  0  0  0  0  0
   12.7388   -7.3287    0.0000 C   0  0  0  0  0  0  0  0  0  0  0  0
   13.1017   -5.8733    0.0000 C   0  0  0  0  0  0  0  0  0  0  0  0
   12.0227   -4.8313    0.0000 C   0  0  0  0  0  0  0  0  0  0  0  0
   10.5808   -5.2447    0.0000 C   0  0  0  0  0  0  0  0  0  0  0  0
  1  2  2  0
  2  3  1  0
  3  4  1  0
  4  5  2  0
  5  6  1  0
  6  7  2  0
  7  8  1  0
  8  9  1  0
  9 10  1  0
 10 11  2  0
 10 12  1  0
 12 13  1  0
 13 14  2  0
 14 15  1  0
 15 16  2  0
 16 17  1  0
 17 18  2  0
 18 19  1  0
 19 20  2  0
 20 21  1  0
 21 22  2  0
 22 23  1  0
 23 24  2  0
  8 25  1  0
 25 26  1  0
 26 27  2  0
 27 28  1  0
 28 29  1  0
 29 30  1  0
 30 31  1  0
 31 32  1  0
 32 33  2  0
 33 34  1  0
 34 35  2  0
 35 36  1  0
 31 37  1  0
 37 38  2  0
 37 39  1  0
 39 40  1  0
 40 41  2  0
 41 42  1  0
 42 43  2  0
 43 44  1  0
 44 45  2  0
 45 46  1  0
 46 47  2  0
 47 48  1  0
 48 49  2  0
 49 50  1  0
 50 51  2  0
 29 52  2  0
  7 53  1  0
  2 54  1  0
 54 55  2  0
 55 56  1  0
 56 57  2  0
 57 58  1  0
 58 59  2  0
 53  4  1  0
 59 54  1  0
 24 10  1  0
 52 26  1  0
 18 13  1  0
 24 19  1  0
 36 32  1  0
 51 37  1  0
 45 40  1  0
 51 46  1  0
M  END
>  <Candidate_ID>  (329) 
CAND_R2_329

>  <Candidate_Name>  (329) 
BDO-benzamide-linker

>  <Parent_Seed_ID>  (329) 
TRAIN_122

>  <Parent_Name>  (329) 
BDO

>  <Transformation_Code>  (329) 
benzamide_linker

>  <Design_Family>  (329) 
P-N-S

>  <Preparation_Type>  (329) 
Additive

>  <Synthesis_Level>  (329) 
B

>  <Parent_Tanimoto_r3>  (329) 
0.7288135593220338

>  <Max_Train_Tanimoto_r3>  (329) 
0.7288135593220338

>  <Risk_Flags>  (329) 
none

$$$$
CAND_R2_330 | BDO-phenyl
     RDKit          2D

 56 65  0  0  0  0  0  0  0  0999 V2000
   10.9720   -6.1824    0.0000 O   0  0  0  0  0  0  0  0  0  0  0  0
   12.1855   -5.3008    0.0000 P   0  0  0  0  0  0  0  0  0  0  0  0
   11.1065   -4.2588    0.0000 C   0  0  0  0  0  0  0  0  0  0  0  0
    9.6646   -4.6722    0.0000 C   0  0  0  0  0  0  0  0  0  0  0  0
    8.5856   -3.6302    0.0000 N   0  0  0  0  0  0  0  0  0  0  0  0
    7.1437   -4.0437    0.0000 C   0  0  0  0  0  0  0  0  0  0  0  0
    6.6307   -5.4532    0.0000 N   0  0  0  0  0  0  0  0  0  0  0  0
    5.1316   -5.4009    0.0000 N   0  0  0  0  0  0  0  0  0  0  0  0
    4.7181   -3.9590    0.0000 C   0  0  0  0  0  0  0  0  0  0  0  0
    3.3086   -3.4460    0.0000 N   0  0  0  0  0  0  0  0  0  0  0  0
    2.1595   -4.4101    0.0000 C   0  0  0  0  0  0  0  0  0  0  0  0
    2.4200   -5.8874    0.0000 C   0  0  0  0  0  0  0  0  0  0  0  0
    3.7682   -6.5449    0.0000 C   0  0  0  0  0  0  0  0  0  0  0  0
    3.5594   -8.0303    0.0000 C   0  0  0  0  0  0  0  0  0  0  0  0
    2.0822   -8.2908    0.0000 C   0  0  0  0  0  0  0  0  0  0  0  0
    1.3780   -6.9664    0.0000 S   0  0  0  0  0  0  0  0  0  0  0  0
    0.7500   -3.8971    0.0000 P   0  0  0  0  0  0  0  0  0  0  0  0
    0.4895   -5.3743    0.0000 O   0  0  0  0  0  0  0  0  0  0  0  0
    1.5000   -2.5981    0.0000 O   0  0  0  0  0  0  0  0  0  0  0  0
    0.7500   -1.2990    0.0000 C   0  0  0  0  0  0  0  0  0  0  0  0
    1.5000    0.0000    0.0000 C   0  0  0  0  0  0  0  0  0  0  0  0
    0.7500    1.2990    0.0000 C   0  0  0  0  0  0  0  0  0  0  0  0
   -0.7500    1.2990    0.0000 C   0  0  0  0  0  0  0  0  0  0  0  0
   -1.5000    0.0000    0.0000 C   0  0  0  0  0  0  0  0  0  0  0  0
   -0.7500   -1.2990    0.0000 C   0  0  0  0  0  0  0  0  0  0  0  0
   -1.5000   -2.5981    0.0000 C   0  0  0  0  0  0  0  0  0  0  0  0
   -3.0000   -2.5981    0.0000 C   0  0  0  0  0  0  0  0  0  0  0  0
   -3.7500   -3.8971    0.0000 C   0  0  0  0  0  0  0  0  0  0  0  0
   -3.0000   -5.1962    0.0000 C   0  0  0  0  0  0  0  0  0  0  0  0
   -1.5000   -5.1962    0.0000 C   0  0  0  0  0  0  0  0  0  0  0  0
   -0.7500   -3.8971    0.0000 C   0  0  0  0  0  0  0  0  0  0  0  0
    5.9617   -3.1202    0.0000 N   0  0  0  0  0  0  0  0  0  0  0  0
    9.3017   -6.1277    0.0000 C   0  0  0  0  0  0  0  0  0  0  0  0
   10.2659   -7.2767    0.0000 C   0  0  0  0  0  0  0  0  0  0  0  0
    9.4710   -8.5488    0.0000 C   0  0  0  0  0  0  0  0  0  0  0  0
    8.0156   -8.1859    0.0000 C   0  0  0  0  0  0  0  0  0  0  0  0
    6.8665   -9.1501    0.0000 C   0  0  0  0  0  0  0  0  0  0  0  0
    5.4570   -8.6371    0.0000 C   0  0  0  0  0  0  0  0  0  0  0  0
    4.3079   -9.6013    0.0000 C   0  0  0  0  0  0  0  0  0  0  0  0
    4.5684  -11.0785    0.0000 C   0  0  0  0  0  0  0  0  0  0  0  0
    5.9779  -11.5915    0.0000 C   0  0  0  0  0  0  0  0  0  0  0  0
    7.1270  -10.6273    0.0000 C   0  0  0  0  0  0  0  0  0  0  0  0
    7.9110   -6.6896    0.0000 S   0  0  0  0  0  0  0  0  0  0  0  0
   13.0243   -4.0572    0.0000 O   0  0  0  0  0  0  0  0  0  0  0  0
   14.5207   -4.1618    0.0000 C   0  0  0  0  0  0  0  0  0  0  0  0
   15.3594   -2.9183    0.0000 C   0  0  0  0  0  0  0  0  0  0  0  0
   16.8558   -3.0229    0.0000 C   0  0  0  0  0  0  0  0  0  0  0  0
   17.5133   -4.3711    0.0000 C   0  0  0  0  0  0  0  0  0  0  0  0
   16.6746   -5.6147    0.0000 C   0  0  0  0  0  0  0  0  0  0  0  0
   15.1782   -5.5100    0.0000 C   0  0  0  0  0  0  0  0  0  0  0  0
   14.3394   -6.7536    0.0000 C   0  0  0  0  0  0  0  0  0  0  0  0
   14.9970   -8.1018    0.0000 C   0  0  0  0  0  0  0  0  0  0  0  0
   14.1582   -9.3453    0.0000 C   0  0  0  0  0  0  0  0  0  0  0  0
   12.6618   -9.2407    0.0000 C   0  0  0  0  0  0  0  0  0  0  0  0
   12.0043   -7.8925    0.0000 C   0  0  0  0  0  0  0  0  0  0  0  0
   12.8431   -6.6490    0.0000 C   0  0  0  0  0  0  0  0  0  0  0  0
  1  2  2  0
  2  3  1  0
  3  4  1  0
  4  5  1  0
  5  6  1  0
  6  7  2  0
  7  8  1  0
  8  9  1  0
  9 10  1  0
 10 11  1  0
 11 12  1  0
 12 13  2  0
 13 14  1  0
 14 15  2  0
 15 16  1  0
 11 17  1  0
 17 18  2  0
 17 19  1  0
 19 20  1  0
 20 21  2  0
 21 22  1  0
 22 23  2  0
 23 24  1  0
 24 25  2  0
 25 26  1  0
 26 27  2  0
 27 28  1  0
 28 29  2  0
 29 30  1  0
 30 31  2  0
  9 32  2  0
  4 33  1  0
 33 34  2  0
 34 35  1  0
 35 36  2  0
 36 37  1  0
 37 38  2  0
 38 39  1  0
 39 40  2  0
 40 41  1  0
 41 42  2  0
 36 43  1  0
  2 44  1  0
 44 45  1  0
 45 46  2  0
 46 47  1  0
 47 48  2  0
 48 49  1  0
 49 50  2  0
 50 51  1  0
 51 52  2  0
 52 53  1  0
 53 54  2  0
 54 55  1  0
 55 56  2  0
 56  2  1  0
 32  6  1  0
 43 33  1  0
 50 45  1  0
 56 51  1  0
 16 12  1  0
 31 17  1  0
 42 37  1  0
 25 20  1  0
 31 26  1  0
M  END
>  <Candidate_ID>  (330) 
CAND_R2_330

>  <Candidate_Name>  (330) 
BDO-phenyl

>  <Parent_Seed_ID>  (330) 
TRAIN_122

>  <Parent_Name>  (330) 
BDO

>  <Transformation_Code>  (330) 
phenyl

>  <Design_Family>  (330) 
P-N-S

>  <Preparation_Type>  (330) 
Additive

>  <Synthesis_Level>  (330) 
B

>  <Parent_Tanimoto_r3>  (330) 
0.7889908256880734

>  <Max_Train_Tanimoto_r3>  (330) 
0.7889908256880734

>  <Risk_Flags>  (330) 
none

$$$$
CAND_R2_331 | BDO-biphenyl
     RDKit          2D

 62 72  0  0  0  0  0  0  0  0999 V2000
   10.9720   -6.1824    0.0000 O   0  0  0  0  0  0  0  0  0  0  0  0
   12.1855   -5.3008    0.0000 P   0  0  0  0  0  0  0  0  0  0  0  0
   11.1065   -4.2588    0.0000 C   0  0  0  0  0  0  0  0  0  0  0  0
    9.6646   -4.6722    0.0000 C   0  0  0  0  0  0  0  0  0  0  0  0
    8.5856   -3.6302    0.0000 N   0  0  0  0  0  0  0  0  0  0  0  0
    7.1437   -4.0437    0.0000 C   0  0  0  0  0  0  0  0  0  0  0  0
    6.6307   -5.4532    0.0000 N   0  0  0  0  0  0  0  0  0  0  0  0
    5.1316   -5.4009    0.0000 N   0  0  0  0  0  0  0  0  0  0  0  0
    4.7181   -3.9590    0.0000 C   0  0  0  0  0  0  0  0  0  0  0  0
    3.3086   -3.4460    0.0000 N   0  0  0  0  0  0  0  0  0  0  0  0
    2.1595   -4.4101    0.0000 C   0  0  0  0  0  0  0  0  0  0  0  0
    2.4200   -5.8874    0.0000 C   0  0  0  0  0  0  0  0  0  0  0  0
    3.7682   -6.5449    0.0000 C   0  0  0  0  0  0  0  0  0  0  0  0
    3.5594   -8.0303    0.0000 C   0  0  0  0  0  0  0  0  0  0  0  0
    2.0822   -8.2908    0.0000 C   0  0  0  0  0  0  0  0  0  0  0  0
    1.3780   -6.9664    0.0000 S   0  0  0  0  0  0  0  0  0  0  0  0
    0.7500   -3.8971    0.0000 P   0  0  0  0  0  0  0  0  0  0  0  0
    0.4895   -5.3743    0.0000 O   0  0  0  0  0  0  0  0  0  0  0  0
    1.5000   -2.5981    0.0000 O   0  0  0  0  0  0  0  0  0  0  0  0
    0.7500   -1.2990    0.0000 C   0  0  0  0  0  0  0  0  0  0  0  0
    1.5000    0.0000    0.0000 C   0  0  0  0  0  0  0  0  0  0  0  0
    0.7500    1.2990    0.0000 C   0  0  0  0  0  0  0  0  0  0  0  0
   -0.7500    1.2990    0.0000 C   0  0  0  0  0  0  0  0  0  0  0  0
   -1.5000    0.0000    0.0000 C   0  0  0  0  0  0  0  0  0  0  0  0
   -0.7500   -1.2990    0.0000 C   0  0  0  0  0  0  0  0  0  0  0  0
   -1.5000   -2.5981    0.0000 C   0  0  0  0  0  0  0  0  0  0  0  0
   -3.0000   -2.5981    0.0000 C   0  0  0  0  0  0  0  0  0  0  0  0
   -3.7500   -3.8971    0.0000 C   0  0  0  0  0  0  0  0  0  0  0  0
   -3.0000   -5.1962    0.0000 C   0  0  0  0  0  0  0  0  0  0  0  0
   -1.5000   -5.1962    0.0000 C   0  0  0  0  0  0  0  0  0  0  0  0
   -0.7500   -3.8971    0.0000 C   0  0  0  0  0  0  0  0  0  0  0  0
    5.9617   -3.1202    0.0000 N   0  0  0  0  0  0  0  0  0  0  0  0
    9.3017   -6.1277    0.0000 C   0  0  0  0  0  0  0  0  0  0  0  0
   10.2659   -7.2767    0.0000 C   0  0  0  0  0  0  0  0  0  0  0  0
    9.4710   -8.5488    0.0000 C   0  0  0  0  0  0  0  0  0  0  0  0
    8.0156   -8.1859    0.0000 C   0  0  0  0  0  0  0  0  0  0  0  0
    6.8665   -9.1501    0.0000 C   0  0  0  0  0  0  0  0  0  0  0  0
    5.4570   -8.6371    0.0000 C   0  0  0  0  0  0  0  0  0  0  0  0
    4.3079   -9.6013    0.0000 C   0  0  0  0  0  0  0  0  0  0  0  0
    4.5684  -11.0785    0.0000 C   0  0  0  0  0  0  0  0  0  0  0  0
    3.4193  -12.0427    0.0000 C   0  0  0  0  0  0  0  0  0  0  0  0
    2.0098  -11.5296    0.0000 C   0  0  0  0  0  0  0  0  0  0  0  0
    0.8607  -12.4938    0.0000 C   0  0  0  0  0  0  0  0  0  0  0  0
    1.1212  -13.9710    0.0000 C   0  0  0  0  0  0  0  0  0  0  0  0
    2.5307  -14.4840    0.0000 C   0  0  0  0  0  0  0  0  0  0  0  0
    3.6798  -13.5199    0.0000 C   0  0  0  0  0  0  0  0  0  0  0  0
    5.9779  -11.5915    0.0000 C   0  0  0  0  0  0  0  0  0  0  0  0
    7.1270  -10.6273    0.0000 C   0  0  0  0  0  0  0  0  0  0  0  0
    7.9110   -6.6896    0.0000 S   0  0  0  0  0  0  0  0  0  0  0  0
   13.0243   -4.0572    0.0000 O   0  0  0  0  0  0  0  0  0  0  0  0
   14.5207   -4.1618    0.0000 C   0  0  0  0  0  0  0  0  0  0  0  0
   15.3594   -2.9183    0.0000 C   0  0  0  0  0  0  0  0  0  0  0  0
   16.8558   -3.0229    0.0000 C   0  0  0  0  0  0  0  0  0  0  0  0
   17.5133   -4.3711    0.0000 C   0  0  0  0  0  0  0  0  0  0  0  0
   16.6746   -5.6147    0.0000 C   0  0  0  0  0  0  0  0  0  0  0  0
   15.1782   -5.5100    0.0000 C   0  0  0  0  0  0  0  0  0  0  0  0
   14.3394   -6.7536    0.0000 C   0  0  0  0  0  0  0  0  0  0  0  0
   14.9970   -8.1018    0.0000 C   0  0  0  0  0  0  0  0  0  0  0  0
   14.1582   -9.3453    0.0000 C   0  0  0  0  0  0  0  0  0  0  0  0
   12.6618   -9.2407    0.0000 C   0  0  0  0  0  0  0  0  0  0  0  0
   12.0043   -7.8925    0.0000 C   0  0  0  0  0  0  0  0  0  0  0  0
   12.8431   -6.6490    0.0000 C   0  0  0  0  0  0  0  0  0  0  0  0
  1  2  2  0
  2  3  1  0
  3  4  1  0
  4  5  1  0
  5  6  1  0
  6  7  2  0
  7  8  1  0
  8  9  1  0
  9 10  1  0
 10 11  1  0
 11 12  1  0
 12 13  2  0
 13 14  1  0
 14 15  2  0
 15 16  1  0
 11 17  1  0
 17 18  2  0
 17 19  1  0
 19 20  1  0
 20 21  2  0
 21 22  1  0
 22 23  2  0
 23 24  1  0
 24 25  2  0
 25 26  1  0
 26 27  2  0
 27 28  1  0
 28 29  2  0
 29 30  1  0
 30 31  2  0
  9 32  2  0
  4 33  1  0
 33 34  2  0
 34 35  1  0
 35 36  2  0
 36 37  1  0
 37 38  2  0
 38 39  1  0
 39 40  2  0
 40 41  1  0
 41 42  2  0
 42 43  1  0
 43 44  2  0
 44 45  1  0
 45 46  2  0
 40 47  1  0
 47 48  2  0
 36 49  1  0
  2 50  1  0
 50 51  1  0
 51 52  2  0
 52 53  1  0
 53 54  2  0
 54 55  1  0
 55 56  2  0
 56 57  1  0
 57 58  2  0
 58 59  1  0
 59 60  2  0
 60 61  1  0
 61 62  2  0
 62  2  1  0
 32  6  1  0
 49 33  1  0
 56 51  1  0
 62 57  1  0
 16 12  1  0
 31 17  1  0
 48 37  1  0
 25 20  1  0
 31 26  1  0
 46 41  1  0
M  END
>  <Candidate_ID>  (331) 
CAND_R2_331

>  <Candidate_Name>  (331) 
BDO-biphenyl

>  <Parent_Seed_ID>  (331) 
TRAIN_122

>  <Parent_Name>  (331) 
BDO

>  <Transformation_Code>  (331) 
biphenyl

>  <Design_Family>  (331) 
P-N-S

>  <Preparation_Type>  (331) 
Additive

>  <Synthesis_Level>  (331) 
B

>  <Parent_Tanimoto_r3>  (331) 
0.7543859649122807

>  <Max_Train_Tanimoto_r3>  (331) 
0.7543859649122807

>  <Risk_Flags>  (331) 
none

$$$$
CAND_R2_332 | BDO-NH-methyl
     RDKit          2D

 51 59  0  0  0  0  0  0  0  0999 V2000
    9.6646   -4.6722    0.0000 C   0  0  0  0  0  0  0  0  0  0  0  0
    8.5856   -3.6302    0.0000 N   0  0  0  0  0  0  0  0  0  0  0  0
    7.1437   -4.0437    0.0000 C   0  0  0  0  0  0  0  0  0  0  0  0
    6.6307   -5.4532    0.0000 N   0  0  0  0  0  0  0  0  0  0  0  0
    5.1316   -5.4009    0.0000 N   0  0  0  0  0  0  0  0  0  0  0  0
    4.7181   -3.9590    0.0000 C   0  0  0  0  0  0  0  0  0  0  0  0
    3.3086   -3.4460    0.0000 N   0  0  0  0  0  0  0  0  0  0  0  0
    2.1595   -4.4101    0.0000 C   0  0  0  0  0  0  0  0  0  0  0  0
    2.4200   -5.8874    0.0000 C   0  0  0  0  0  0  0  0  0  0  0  0
    3.7682   -6.5449    0.0000 C   0  0  0  0  0  0  0  0  0  0  0  0
    3.5594   -8.0303    0.0000 C   0  0  0  0  0  0  0  0  0  0  0  0
    2.0822   -8.2908    0.0000 C   0  0  0  0  0  0  0  0  0  0  0  0
    1.3780   -6.9664    0.0000 S   0  0  0  0  0  0  0  0  0  0  0  0
    0.7500   -3.8971    0.0000 P   0  0  0  0  0  0  0  0  0  0  0  0
    0.4895   -5.3743    0.0000 O   0  0  0  0  0  0  0  0  0  0  0  0
    1.5000   -2.5981    0.0000 O   0  0  0  0  0  0  0  0  0  0  0  0
    0.7500   -1.2990    0.0000 C   0  0  0  0  0  0  0  0  0  0  0  0
    1.5000    0.0000    0.0000 C   0  0  0  0  0  0  0  0  0  0  0  0
    0.7500    1.2990    0.0000 C   0  0  0  0  0  0  0  0  0  0  0  0
   -0.7500    1.2990    0.0000 C   0  0  0  0  0  0  0  0  0  0  0  0
   -1.5000    0.0000    0.0000 C   0  0  0  0  0  0  0  0  0  0  0  0
   -0.7500   -1.2990    0.0000 C   0  0  0  0  0  0  0  0  0  0  0  0
   -1.5000   -2.5981    0.0000 C   0  0  0  0  0  0  0  0  0  0  0  0
   -3.0000   -2.5981    0.0000 C   0  0  0  0  0  0  0  0  0  0  0  0
   -3.7500   -3.8971    0.0000 C   0  0  0  0  0  0  0  0  0  0  0  0
   -3.0000   -5.1962    0.0000 C   0  0  0  0  0  0  0  0  0  0  0  0
   -1.5000   -5.1962    0.0000 C   0  0  0  0  0  0  0  0  0  0  0  0
   -0.7500   -3.8971    0.0000 C   0  0  0  0  0  0  0  0  0  0  0  0
    5.9617   -3.1202    0.0000 N   0  0  0  0  0  0  0  0  0  0  0  0
    8.9485   -2.1748    0.0000 C   0  0  0  0  0  0  0  0  0  0  0  0
   10.3904   -1.7613    0.0000 C   0  0  0  0  0  0  0  0  0  0  0  0
   10.7533   -0.3059    0.0000 P   0  0  0  0  0  0  0  0  0  0  0  0
    9.2569   -0.2013    0.0000 O   0  0  0  0  0  0  0  0  0  0  0  0
   12.1236   -0.9160    0.0000 O   0  0  0  0  0  0  0  0  0  0  0  0
   13.3371   -0.0343    0.0000 C   0  0  0  0  0  0  0  0  0  0  0  0
   14.7074   -0.6444    0.0000 C   0  0  0  0  0  0  0  0  0  0  0  0
   15.9210    0.2372    0.0000 C   0  0  0  0  0  0  0  0  0  0  0  0
   15.7642    1.7290    0.0000 C   0  0  0  0  0  0  0  0  0  0  0  0
   14.3938    2.3391    0.0000 C   0  0  0  0  0  0  0  0  0  0  0  0
   13.1803    1.4575    0.0000 C   0  0  0  0  0  0  0  0  0  0  0  0
   11.8100    2.0676    0.0000 C   0  0  0  0  0  0  0  0  0  0  0  0
   11.6532    3.5593    0.0000 C   0  0  0  0  0  0  0  0  0  0  0  0
   10.2829    4.1695    0.0000 C   0  0  0  0  0  0  0  0  0  0  0  0
    9.0694    3.2878    0.0000 C   0  0  0  0  0  0  0  0  0  0  0  0
    9.2262    1.7960    0.0000 C   0  0  0  0  0  0  0  0  0  0  0  0
   10.5965    1.1859    0.0000 C   0  0  0  0  0  0  0  0  0  0  0  0
    7.8695   -1.1328    0.0000 C   0  0  0  0  0  0  0  0  0  0  0  0
    6.3923   -1.3933    0.0000 C   0  0  0  0  0  0  0  0  0  0  0  0
    5.6881   -0.0689    0.0000 C   0  0  0  0  0  0  0  0  0  0  0  0
    6.7301    1.0101    0.0000 C   0  0  0  0  0  0  0  0  0  0  0  0
    8.0782    0.3526    0.0000 S   0  0  0  0  0  0  0  0  0  0  0  0
  1  2  1  0
  2  3  1  0
  3  4  2  0
  4  5  1  0
  5  6  1  0
  6  7  1  0
  7  8  1  0
  8  9  1  0
  9 10  2  0
 10 11  1  0
 11 12  2  0
 12 13  1  0
  8 14  1  0
 14 15  2  0
 14 16  1  0
 16 17  1  0
 17 18  2  0
 18 19  1  0
 19 20  2  0
 20 21  1  0
 21 22  2  0
 22 23  1  0
 23 24  2  0
 24 25  1  0
 25 26  2  0
 26 27  1  0
 27 28  2  0
  6 29  2  0
  2 30  1  0
 30 31  1  0
 31 32  1  0
 32 33  2  0
 32 34  1  0
 34 35  1  0
 35 36  2  0
 36 37  1  0
 37 38  2  0
 38 39  1  0
 39 40  2  0
 40 41  1  0
 41 42  2  0
 42 43  1  0
 43 44  2  0
 44 45  1  0
 45 46  2  0
 30 47  1  0
 47 48  2  0
 48 49  1  0
 49 50  2  0
 50 51  1  0
 29  3  1  0
 46 32  1  0
 51 47  1  0
 13  9  1  0
 28 14  1  0
 40 35  1  0
 46 41  1  0
 22 17  1  0
 28 23  1  0
M  END
>  <Candidate_ID>  (332) 
CAND_R2_332

>  <Candidate_Name>  (332) 
BDO-NH-methyl

>  <Parent_Seed_ID>  (332) 
TRAIN_122

>  <Parent_Name>  (332) 
BDO

>  <Transformation_Code>  (332) 
NH_methyl

>  <Design_Family>  (332) 
P-N-S

>  <Preparation_Type>  (332) 
Additive

>  <Synthesis_Level>  (332) 
B

>  <Parent_Tanimoto_r3>  (332) 
0.6403508771929824

>  <Max_Train_Tanimoto_r3>  (332) 
0.6403508771929824

>  <Risk_Flags>  (332) 
large structural change from parent; candidate may be outside strict in-domain threshold

$$$$
CAND_R2_333 | BDO-NH-methyl-2
     RDKit          2D

 51 59  0  0  0  0  0  0  0  0999 V2000
   -0.9603  -12.1850    0.0000 C   0  0  0  0  0  0  0  0  0  0  0  0
    0.5361  -12.0804    0.0000 N   0  0  0  0  0  0  0  0  0  0  0  0
    1.1936  -10.7322    0.0000 C   0  0  0  0  0  0  0  0  0  0  0  0
    0.4894   -9.4078    0.0000 N   0  0  0  0  0  0  0  0  0  0  0  0
    1.5314   -8.3287    0.0000 C   0  0  0  0  0  0  0  0  0  0  0  0
    1.2709   -6.8515    0.0000 N   0  0  0  0  0  0  0  0  0  0  0  0
    2.4200   -5.8874    0.0000 C   0  0  0  0  0  0  0  0  0  0  0  0
    2.1595   -4.4101    0.0000 C   0  0  0  0  0  0  0  0  0  0  0  0
    0.7500   -3.8971    0.0000 P   0  0  0  0  0  0  0  0  0  0  0  0
    0.4895   -5.3743    0.0000 O   0  0  0  0  0  0  0  0  0  0  0  0
    1.5000   -2.5981    0.0000 O   0  0  0  0  0  0  0  0  0  0  0  0
    0.7500   -1.2990    0.0000 C   0  0  0  0  0  0  0  0  0  0  0  0
    1.5000    0.0000    0.0000 C   0  0  0  0  0  0  0  0  0  0  0  0
    0.7500    1.2990    0.0000 C   0  0  0  0  0  0  0  0  0  0  0  0
   -0.7500    1.2990    0.0000 C   0  0  0  0  0  0  0  0  0  0  0  0
   -1.5000    0.0000    0.0000 C   0  0  0  0  0  0  0  0  0  0  0  0
   -0.7500   -1.2990    0.0000 C   0  0  0  0  0  0  0  0  0  0  0  0
   -1.5000   -2.5981    0.0000 C   0  0  0  0  0  0  0  0  0  0  0  0
   -3.0000   -2.5981    0.0000 C   0  0  0  0  0  0  0  0  0  0  0  0
   -3.7500   -3.8971    0.0000 C   0  0  0  0  0  0  0  0  0  0  0  0
   -3.0000   -5.1962    0.0000 C   0  0  0  0  0  0  0  0  0  0  0  0
   -1.5000   -5.1962    0.0000 C   0  0  0  0  0  0  0  0  0  0  0  0
   -0.7500   -3.8971    0.0000 C   0  0  0  0  0  0  0  0  0  0  0  0
    3.8296   -6.4004    0.0000 C   0  0  0  0  0  0  0  0  0  0  0  0
    5.0731   -5.5616    0.0000 C   0  0  0  0  0  0  0  0  0  0  0  0
    6.2551   -6.4851    0.0000 C   0  0  0  0  0  0  0  0  0  0  0  0
    5.7421   -7.8946    0.0000 C   0  0  0  0  0  0  0  0  0  0  0  0
    4.2430   -7.8423    0.0000 S   0  0  0  0  0  0  0  0  0  0  0  0
    2.8796   -8.9863    0.0000 N   0  0  0  0  0  0  0  0  0  0  0  0
    2.6708  -10.4717    0.0000 N   0  0  0  0  0  0  0  0  0  0  0  0
    1.3749  -13.3239    0.0000 C   0  0  0  0  0  0  0  0  0  0  0  0
    0.7173  -14.6721    0.0000 C   0  0  0  0  0  0  0  0  0  0  0  0
    1.4215  -15.9965    0.0000 C   0  0  0  0  0  0  0  0  0  0  0  0
    0.3795  -17.0755    0.0000 C   0  0  0  0  0  0  0  0  0  0  0  0
   -0.9687  -16.4180    0.0000 C   0  0  0  0  0  0  0  0  0  0  0  0
   -0.7599  -14.9326    0.0000 S   0  0  0  0  0  0  0  0  0  0  0  0
    2.8712  -13.2193    0.0000 P   0  0  0  0  0  0  0  0  0  0  0  0
    2.5083  -11.7638    0.0000 O   0  0  0  0  0  0  0  0  0  0  0  0
    2.7144  -14.7111    0.0000 O   0  0  0  0  0  0  0  0  0  0  0  0
    3.9279  -15.5928    0.0000 C   0  0  0  0  0  0  0  0  0  0  0  0
    3.7712  -17.0845    0.0000 C   0  0  0  0  0  0  0  0  0  0  0  0
    4.9847  -17.9662    0.0000 C   0  0  0  0  0  0  0  0  0  0  0  0
    6.3550  -17.3561    0.0000 C   0  0  0  0  0  0  0  0  0  0  0  0
    6.5118  -15.8643    0.0000 C   0  0  0  0  0  0  0  0  0  0  0  0
    5.2983  -14.9826    0.0000 C   0  0  0  0  0  0  0  0  0  0  0  0
    5.4551  -13.4909    0.0000 C   0  0  0  0  0  0  0  0  0  0  0  0
    6.8254  -12.8808    0.0000 C   0  0  0  0  0  0  0  0  0  0  0  0
    6.9822  -11.3890    0.0000 C   0  0  0  0  0  0  0  0  0  0  0  0
    5.7686  -10.5073    0.0000 C   0  0  0  0  0  0  0  0  0  0  0  0
    4.3983  -11.1174    0.0000 C   0  0  0  0  0  0  0  0  0  0  0  0
    4.2415  -12.6092    0.0000 C   0  0  0  0  0  0  0  0  0  0  0  0
  1  2  1  0
  2  3  1  0
  3  4  2  0
  4  5  1  0
  5  6  1  0
  6  7  1  0
  7  8  1  0
  8  9  1  0
  9 10  2  0
  9 11  1  0
 11 12  1  0
 12 13  2  0
 13 14  1  0
 14 15  2  0
 15 16  1  0
 16 17  2  0
 17 18  1  0
 18 19  2  0
 19 20  1  0
 20 21  2  0
 21 22  1  0
 22 23  2  0
  7 24  1  0
 24 25  2  0
 25 26  1  0
 26 27  2  0
 27 28  1  0
  5 29  2  0
 29 30  1  0
  2 31  1  0
 31 32  1  0
 32 33  2  0
 33 34  1  0
 34 35  2  0
 35 36  1  0
 31 37  1  0
 37 38  2  0
 37 39  1  0
 39 40  1  0
 40 41  2  0
 41 42  1  0
 42 43  2  0
 43 44  1  0
 44 45  2  0
 45 46  1  0
 46 47  2  0
 47 48  1  0
 48 49  2  0
 49 50  1  0
 50 51  2  0
 30  3  1  0
 36 32  1  0
 51 37  1  0
 23  9  1  0
 28 24  1  0
 45 40  1  0
 51 46  1  0
 17 12  1  0
 23 18  1  0
M  END
>  <Candidate_ID>  (333) 
CAND_R2_333

>  <Candidate_Name>  (333) 
BDO-NH-methyl-2

>  <Parent_Seed_ID>  (333) 
TRAIN_122

>  <Parent_Name>  (333) 
BDO

>  <Transformation_Code>  (333) 
NH_methyl

>  <Design_Family>  (333) 
P-N-S

>  <Preparation_Type>  (333) 
Additive

>  <Synthesis_Level>  (333) 
B

>  <Parent_Tanimoto_r3>  (333) 
0.6228070175438597

>  <Max_Train_Tanimoto_r3>  (333) 
0.6228070175438597

>  <Risk_Flags>  (333) 
large structural change from parent; candidate may be outside strict in-domain threshold

$$$$
CAND_R2_334 | BDO-NH-hydroxyethyl
     RDKit          2D

 53 61  0  0  0  0  0  0  0  0999 V2000
    9.2569   -0.2013    0.0000 O   0  0  0  0  0  0  0  0  0  0  0  0
   10.7533   -0.3059    0.0000 P   0  0  0  0  0  0  0  0  0  0  0  0
   10.3904   -1.7613    0.0000 C   0  0  0  0  0  0  0  0  0  0  0  0
    8.9485   -2.1748    0.0000 C   0  0  0  0  0  0  0  0  0  0  0  0
    7.8695   -1.1328    0.0000 C   0  0  0  0  0  0  0  0  0  0  0  0
    6.3923   -1.3933    0.0000 C   0  0  0  0  0  0  0  0  0  0  0  0
    5.6881   -0.0689    0.0000 C   0  0  0  0  0  0  0  0  0  0  0  0
    6.7301    1.0101    0.0000 C   0  0  0  0  0  0  0  0  0  0  0  0
    8.0782    0.3526    0.0000 S   0  0  0  0  0  0  0  0  0  0  0  0
    8.5856   -3.6302    0.0000 N   0  0  0  0  0  0  0  0  0  0  0  0
    9.6646   -4.6722    0.0000 C   0  0  0  0  0  0  0  0  0  0  0  0
   11.1065   -4.2588    0.0000 C   0  0  0  0  0  0  0  0  0  0  0  0
   12.1855   -5.3008    0.0000 O   0  0  0  0  0  0  0  0  0  0  0  0
    7.1437   -4.0437    0.0000 C   0  0  0  0  0  0  0  0  0  0  0  0
    6.6307   -5.4532    0.0000 N   0  0  0  0  0  0  0  0  0  0  0  0
    5.1316   -5.4009    0.0000 N   0  0  0  0  0  0  0  0  0  0  0  0
    4.7181   -3.9590    0.0000 C   0  0  0  0  0  0  0  0  0  0  0  0
    3.3086   -3.4460    0.0000 N   0  0  0  0  0  0  0  0  0  0  0  0
    2.1595   -4.4101    0.0000 C   0  0  0  0  0  0  0  0  0  0  0  0
    2.4200   -5.8874    0.0000 C   0  0  0  0  0  0  0  0  0  0  0  0
    3.7682   -6.5449    0.0000 C   0  0  0  0  0  0  0  0  0  0  0  0
    3.5594   -8.0303    0.0000 C   0  0  0  0  0  0  0  0  0  0  0  0
    2.0822   -8.2908    0.0000 C   0  0  0  0  0  0  0  0  0  0  0  0
    1.3780   -6.9664    0.0000 S   0  0  0  0  0  0  0  0  0  0  0  0
    0.7500   -3.8971    0.0000 P   0  0  0  0  0  0  0  0  0  0  0  0
    0.4895   -5.3743    0.0000 O   0  0  0  0  0  0  0  0  0  0  0  0
    1.5000   -2.5981    0.0000 O   0  0  0  0  0  0  0  0  0  0  0  0
    0.7500   -1.2990    0.0000 C   0  0  0  0  0  0  0  0  0  0  0  0
    1.5000    0.0000    0.0000 C   0  0  0  0  0  0  0  0  0  0  0  0
    0.7500    1.2990    0.0000 C   0  0  0  0  0  0  0  0  0  0  0  0
   -0.7500    1.2990    0.0000 C   0  0  0  0  0  0  0  0  0  0  0  0
   -1.5000    0.0000    0.0000 C   0  0  0  0  0  0  0  0  0  0  0  0
   -0.7500   -1.2990    0.0000 C   0  0  0  0  0  0  0  0  0  0  0  0
   -1.5000   -2.5981    0.0000 C   0  0  0  0  0  0  0  0  0  0  0  0
   -3.0000   -2.5981    0.0000 C   0  0  0  0  0  0  0  0  0  0  0  0
   -3.7500   -3.8971    0.0000 C   0  0  0  0  0  0  0  0  0  0  0  0
   -3.0000   -5.1962    0.0000 C   0  0  0  0  0  0  0  0  0  0  0  0
   -1.5000   -5.1962    0.0000 C   0  0  0  0  0  0  0  0  0  0  0  0
   -0.7500   -3.8971    0.0000 C   0  0  0  0  0  0  0  0  0  0  0  0
    5.9617   -3.1202    0.0000 N   0  0  0  0  0  0  0  0  0  0  0  0
   12.1236   -0.9160    0.0000 O   0  0  0  0  0  0  0  0  0  0  0  0
   13.3371   -0.0343    0.0000 C   0  0  0  0  0  0  0  0  0  0  0  0
   14.7074   -0.6444    0.0000 C   0  0  0  0  0  0  0  0  0  0  0  0
   15.9210    0.2372    0.0000 C   0  0  0  0  0  0  0  0  0  0  0  0
   15.7642    1.7290    0.0000 C   0  0  0  0  0  0  0  0  0  0  0  0
   14.3938    2.3391    0.0000 C   0  0  0  0  0  0  0  0  0  0  0  0
   13.1803    1.4575    0.0000 C   0  0  0  0  0  0  0  0  0  0  0  0
   11.8100    2.0676    0.0000 C   0  0  0  0  0  0  0  0  0  0  0  0
   11.6532    3.5593    0.0000 C   0  0  0  0  0  0  0  0  0  0  0  0
   10.2829    4.1695    0.0000 C   0  0  0  0  0  0  0  0  0  0  0  0
    9.0694    3.2878    0.0000 C   0  0  0  0  0  0  0  0  0  0  0  0
    9.2262    1.7960    0.0000 C   0  0  0  0  0  0  0  0  0  0  0  0
   10.5965    1.1859    0.0000 C   0  0  0  0  0  0  0  0  0  0  0  0
  1  2  2  0
  2  3  1  0
  3  4  1  0
  4  5  1  0
  5  6  2  0
  6  7  1  0
  7  8  2  0
  8  9  1  0
  4 10  1  0
 10 11  1  0
 11 12  1  0
 12 13  1  0
 10 14  1  0
 14 15  2  0
 15 16  1  0
 16 17  1  0
 17 18  1  0
 18 19  1  0
 19 20  1  0
 20 21  2  0
 21 22  1  0
 22 23  2  0
 23 24  1  0
 19 25  1  0
 25 26  2  0
 25 27  1  0
 27 28  1  0
 28 29  2  0
 29 30  1  0
 30 31  2  0
 31 32  1  0
 32 33  2  0
 33 34  1  0
 34 35  2  0
 35 36  1  0
 36 37  2  0
 37 38  1  0
 38 39  2  0
 17 40  2  0
  2 41  1  0
 41 42  1  0
 42 43  2  0
 43 44  1  0
 44 45  2  0
 45 46  1  0
 46 47  2  0
 47 48  1  0
 48 49  2  0
 49 50  1  0
 50 51  2  0
 51 52  1  0
 52 53  2  0
 53  2  1  0
  9  5  1  0
 40 14  1  0
 47 42  1  0
 53 48  1  0
 24 20  1  0
 39 25  1  0
 33 28  1  0
 39 34  1  0
M  END
>  <Candidate_ID>  (334) 
CAND_R2_334

>  <Candidate_Name>  (334) 
BDO-NH-hydroxyethyl

>  <Parent_Seed_ID>  (334) 
TRAIN_122

>  <Parent_Name>  (334) 
BDO

>  <Transformation_Code>  (334) 
NH_hydroxyethyl

>  <Design_Family>  (334) 
P-N-S

>  <Preparation_Type>  (334) 
Additive

>  <Synthesis_Level>  (334) 
B

>  <Parent_Tanimoto_r3>  (334) 
0.6186440677966102

>  <Max_Train_Tanimoto_r3>  (334) 
0.6186440677966102

>  <Risk_Flags>  (334) 
large structural change from parent; candidate may be outside strict in-domain threshold

$$$$
CAND_R2_335 | BDO-NH-hydroxyethyl-2
     RDKit          2D

 53 61  0  0  0  0  0  0  0  0999 V2000
    1.8468    4.5590    0.0000 O   0  0  0  0  0  0  0  0  0  0  0  0
    0.4764    5.1691    0.0000 P   0  0  0  0  0  0  0  0  0  0  0  0
    0.1136    3.7136    0.0000 C   0  0  0  0  0  0  0  0  0  0  0  0
    1.1926    2.6716    0.0000 C   0  0  0  0  0  0  0  0  0  0  0  0
    0.8297    1.2162    0.0000 N   0  0  0  0  0  0  0  0  0  0  0  0
    1.9087    0.1742    0.0000 C   0  0  0  0  0  0  0  0  0  0  0  0
    3.3859    0.4347    0.0000 N   0  0  0  0  0  0  0  0  0  0  0  0
    4.0901   -0.8897    0.0000 N   0  0  0  0  0  0  0  0  0  0  0  0
    3.0481   -1.9688    0.0000 C   0  0  0  0  0  0  0  0  0  0  0  0
    3.3086   -3.4460    0.0000 N   0  0  0  0  0  0  0  0  0  0  0  0
    4.7181   -3.9590    0.0000 C   0  0  0  0  0  0  0  0  0  0  0  0
    5.8672   -2.9948    0.0000 C   0  0  0  0  0  0  0  0  0  0  0  0
    7.2768   -3.5078    0.0000 O   0  0  0  0  0  0  0  0  0  0  0  0
    2.1595   -4.4101    0.0000 C   0  0  0  0  0  0  0  0  0  0  0  0
    2.4200   -5.8874    0.0000 C   0  0  0  0  0  0  0  0  0  0  0  0
    3.7682   -6.5449    0.0000 C   0  0  0  0  0  0  0  0  0  0  0  0
    3.5594   -8.0303    0.0000 C   0  0  0  0  0  0  0  0  0  0  0  0
    2.0822   -8.2908    0.0000 C   0  0  0  0  0  0  0  0  0  0  0  0
    1.3780   -6.9664    0.0000 S   0  0  0  0  0  0  0  0  0  0  0  0
    0.7500   -3.8971    0.0000 P   0  0  0  0  0  0  0  0  0  0  0  0
    1.5000   -2.5981    0.0000 O   0  0  0  0  0  0  0  0  0  0  0  0
    0.4895   -5.3743    0.0000 O   0  0  0  0  0  0  0  0  0  0  0  0
   -0.9200   -5.8874    0.0000 C   0  0  0  0  0  0  0  0  0  0  0  0
   -1.1805   -7.3646    0.0000 C   0  0  0  0  0  0  0  0  0  0  0  0
   -2.5900   -7.8776    0.0000 C   0  0  0  0  0  0  0  0  0  0  0  0
   -3.7391   -6.9134    0.0000 C   0  0  0  0  0  0  0  0  0  0  0  0
   -3.4786   -5.4362    0.0000 C   0  0  0  0  0  0  0  0  0  0  0  0
   -2.0691   -4.9232    0.0000 C   0  0  0  0  0  0  0  0  0  0  0  0
   -1.8086   -3.4460    0.0000 C   0  0  0  0  0  0  0  0  0  0  0  0
   -2.9577   -2.4818    0.0000 C   0  0  0  0  0  0  0  0  0  0  0  0
   -2.6972   -1.0046    0.0000 C   0  0  0  0  0  0  0  0  0  0  0  0
   -1.2877   -0.4915    0.0000 C   0  0  0  0  0  0  0  0  0  0  0  0
   -0.1386   -1.4557    0.0000 C   0  0  0  0  0  0  0  0  0  0  0  0
   -0.3991   -2.9329    0.0000 C   0  0  0  0  0  0  0  0  0  0  0  0
    1.6999   -1.3112    0.0000 N   0  0  0  0  0  0  0  0  0  0  0  0
    2.6345    3.0851    0.0000 C   0  0  0  0  0  0  0  0  0  0  0  0
    3.1475    4.4946    0.0000 C   0  0  0  0  0  0  0  0  0  0  0  0
    4.6466    4.4423    0.0000 C   0  0  0  0  0  0  0  0  0  0  0  0
    5.0600    3.0004    0.0000 C   0  0  0  0  0  0  0  0  0  0  0  0
    3.8165    2.1616    0.0000 S   0  0  0  0  0  0  0  0  0  0  0  0
   -1.0199    5.2737    0.0000 O   0  0  0  0  0  0  0  0  0  0  0  0
   -1.6775    6.6219    0.0000 C   0  0  0  0  0  0  0  0  0  0  0  0
   -3.1738    6.7265    0.0000 C   0  0  0  0  0  0  0  0  0  0  0  0
   -3.8314    8.0747    0.0000 C   0  0  0  0  0  0  0  0  0  0  0  0
   -2.9926    9.3183    0.0000 C   0  0  0  0  0  0  0  0  0  0  0  0
   -1.4962    9.2136    0.0000 C   0  0  0  0  0  0  0  0  0  0  0  0
   -0.8387    7.8655    0.0000 C   0  0  0  0  0  0  0  0  0  0  0  0
    0.6577    7.7608    0.0000 C   0  0  0  0  0  0  0  0  0  0  0  0
    1.4965    9.0044    0.0000 C   0  0  0  0  0  0  0  0  0  0  0  0
    2.9928    8.8997    0.0000 C   0  0  0  0  0  0  0  0  0  0  0  0
    3.6504    7.5515    0.0000 C   0  0  0  0  0  0  0  0  0  0  0  0
    2.8116    6.3080    0.0000 C   0  0  0  0  0  0  0  0  0  0  0  0
    1.3152    6.4126    0.0000 C   0  0  0  0  0  0  0  0  0  0  0  0
  1  2  2  0
  2  3  1  0
  3  4  1  0
  4  5  1  0
  5  6  1  0
  6  7  2  0
  7  8  1  0
  8  9  1  0
  9 10  1  0
 10 11  1  0
 11 12  1  0
 12 13  1  0
 10 14  1  0
 14 15  1  0
 15 16  2  0
 16 17  1  0
 17 18  2  0
 18 19  1  0
 14 20  1  0
 20 21  2  0
 20 22  1  0
 22 23  1  0
 23 24  2  0
 24 25  1  0
 25 26  2  0
 26 27  1  0
 27 28  2  0
 28 29  1  0
 29 30  2  0
 30 31  1  0
 31 32  2  0
 32 33  1  0
 33 34  2  0
  9 35  2  0
  4 36  1  0
 36 37  2  0
 37 38  1  0
 38 39  2  0
 39 40  1  0
  2 41  1  0
 41 42  1  0
 42 43  2  0
 43 44  1  0
 44 45  2  0
 45 46  1  0
 46 47  2  0
 47 48  1  0
 48 49  2  0
 49 50  1  0
 50 51  2  0
 51 52  1  0
 52 53  2  0
 53  2  1  0
 35  6  1  0
 40 36  1  0
 47 42  1  0
 53 48  1  0
 19 15  1  0
 34 20  1  0
 28 23  1  0
 34 29  1  0
M  END
>  <Candidate_ID>  (335) 
CAND_R2_335

>  <Candidate_Name>  (335) 
BDO-NH-hydroxyethyl-2

>  <Parent_Seed_ID>  (335) 
TRAIN_122

>  <Parent_Name>  (335) 
BDO

>  <Transformation_Code>  (335) 
NH_hydroxyethyl

>  <Design_Family>  (335) 
P-N-S

>  <Preparation_Type>  (335) 
Additive

>  <Synthesis_Level>  (335) 
B

>  <Parent_Tanimoto_r3>  (335) 
0.5916666666666667

>  <Max_Train_Tanimoto_r3>  (335) 
0.5916666666666667

>  <Risk_Flags>  (335) 
large structural change from parent; candidate may be outside strict in-domain threshold

$$$$
CAND_R2_336 | BDO-NH-glycidyl
     RDKit          2D

 54 63  0  0  0  0  0  0  0  0999 V2000
    9.2569   -0.2013    0.0000 O   0  0  0  0  0  0  0  0  0  0  0  0
   10.7533   -0.3059    0.0000 P   0  0  0  0  0  0  0  0  0  0  0  0
   10.3904   -1.7613    0.0000 C   0  0  0  0  0  0  0  0  0  0  0  0
    8.9485   -2.1748    0.0000 C   0  0  0  0  0  0  0  0  0  0  0  0
    7.8695   -1.1328    0.0000 C   0  0  0  0  0  0  0  0  0  0  0  0
    6.3923   -1.3933    0.0000 C   0  0  0  0  0  0  0  0  0  0  0  0
    5.6881   -0.0689    0.0000 C   0  0  0  0  0  0  0  0  0  0  0  0
    6.7301    1.0101    0.0000 C   0  0  0  0  0  0  0  0  0  0  0  0
    8.0782    0.3526    0.0000 S   0  0  0  0  0  0  0  0  0  0  0  0
    8.5856   -3.6302    0.0000 N   0  0  0  0  0  0  0  0  0  0  0  0
    9.6646   -4.6722    0.0000 C   0  0  0  0  0  0  0  0  0  0  0  0
   11.1065   -4.2588    0.0000 C   0  0  0  0  0  0  0  0  0  0  0  0
   12.1485   -3.1798    0.0000 C   0  0  0  0  0  0  0  0  0  0  0  0
   12.5620   -4.6217    0.0000 O   0  0  0  0  0  0  0  0  0  0  0  0
    7.1437   -4.0437    0.0000 C   0  0  0  0  0  0  0  0  0  0  0  0
    6.6307   -5.4532    0.0000 N   0  0  0  0  0  0  0  0  0  0  0  0
    5.1316   -5.4009    0.0000 N   0  0  0  0  0  0  0  0  0  0  0  0
    4.7181   -3.9590    0.0000 C   0  0  0  0  0  0  0  0  0  0  0  0
    3.3086   -3.4460    0.0000 N   0  0  0  0  0  0  0  0  0  0  0  0
    2.1595   -4.4101    0.0000 C   0  0  0  0  0  0  0  0  0  0  0  0
    2.4200   -5.8874    0.0000 C   0  0  0  0  0  0  0  0  0  0  0  0
    3.7682   -6.5449    0.0000 C   0  0  0  0  0  0  0  0  0  0  0  0
    3.5594   -8.0303    0.0000 C   0  0  0  0  0  0  0  0  0  0  0  0
    2.0822   -8.2908    0.0000 C   0  0  0  0  0  0  0  0  0  0  0  0
    1.3780   -6.9664    0.0000 S   0  0  0  0  0  0  0  0  0  0  0  0
    0.7500   -3.8971    0.0000 P   0  0  0  0  0  0  0  0  0  0  0  0
    0.4895   -5.3743    0.0000 O   0  0  0  0  0  0  0  0  0  0  0  0
    1.5000   -2.5981    0.0000 O   0  0  0  0  0  0  0  0  0  0  0  0
    0.7500   -1.2990    0.0000 C   0  0  0  0  0  0  0  0  0  0  0  0
    1.5000    0.0000    0.0000 C   0  0  0  0  0  0  0  0  0  0  0  0
    0.7500    1.2990    0.0000 C   0  0  0  0  0  0  0  0  0  0  0  0
   -0.7500    1.2990    0.0000 C   0  0  0  0  0  0  0  0  0  0  0  0
   -1.5000    0.0000    0.0000 C   0  0  0  0  0  0  0  0  0  0  0  0
   -0.7500   -1.2990    0.0000 C   0  0  0  0  0  0  0  0  0  0  0  0
   -1.5000   -2.5981    0.0000 C   0  0  0  0  0  0  0  0  0  0  0  0
   -3.0000   -2.5981    0.0000 C   0  0  0  0  0  0  0  0  0  0  0  0
   -3.7500   -3.8971    0.0000 C   0  0  0  0  0  0  0  0  0  0  0  0
   -3.0000   -5.1962    0.0000 C   0  0  0  0  0  0  0  0  0  0  0  0
   -1.5000   -5.1962    0.0000 C   0  0  0  0  0  0  0  0  0  0  0  0
   -0.7500   -3.8971    0.0000 C   0  0  0  0  0  0  0  0  0  0  0  0
    5.9617   -3.1202    0.0000 N   0  0  0  0  0  0  0  0  0  0  0  0
   12.1236   -0.9160    0.0000 O   0  0  0  0  0  0  0  0  0  0  0  0
   13.3371   -0.0343    0.0000 C   0  0  0  0  0  0  0  0  0  0  0  0
   14.7074   -0.6444    0.0000 C   0  0  0  0  0  0  0  0  0  0  0  0
   15.9210    0.2372    0.0000 C   0  0  0  0  0  0  0  0  0  0  0  0
   15.7642    1.7290    0.0000 C   0  0  0  0  0  0  0  0  0  0  0  0
   14.3938    2.3391    0.0000 C   0  0  0  0  0  0  0  0  0  0  0  0
   13.1803    1.4575    0.0000 C   0  0  0  0  0  0  0  0  0  0  0  0
   11.8100    2.0676    0.0000 C   0  0  0  0  0  0  0  0  0  0  0  0
   11.6532    3.5593    0.0000 C   0  0  0  0  0  0  0  0  0  0  0  0
   10.2829    4.1695    0.0000 C   0  0  0  0  0  0  0  0  0  0  0  0
    9.0694    3.2878    0.0000 C   0  0  0  0  0  0  0  0  0  0  0  0
    9.2262    1.7960    0.0000 C   0  0  0  0  0  0  0  0  0  0  0  0
   10.5965    1.1859    0.0000 C   0  0  0  0  0  0  0  0  0  0  0  0
  1  2  2  0
  2  3  1  0
  3  4  1  0
  4  5  1  0
  5  6  2  0
  6  7  1  0
  7  8  2  0
  8  9  1  0
  4 10  1  0
 10 11  1  0
 11 12  1  0
 12 13  1  0
 13 14  1  0
 10 15  1  0
 15 16  2  0
 16 17  1  0
 17 18  1  0
 18 19  1  0
 19 20  1  0
 20 21  1  0
 21 22  2  0
 22 23  1  0
 23 24  2  0
 24 25  1  0
 20 26  1  0
 26 27  2  0
 26 28  1  0
 28 29  1  0
 29 30  2  0
 30 31  1  0
 31 32  2  0
 32 33  1  0
 33 34  2  0
 34 35  1  0
 35 36  2  0
 36 37  1  0
 37 38  2  0
 38 39  1  0
 39 40  2  0
 18 41  2  0
  2 42  1  0
 42 43  1  0
 43 44  2  0
 44 45  1  0
 45 46  2  0
 46 47  1  0
 47 48  2  0
 48 49  1  0
 49 50  2  0
 50 51  1  0
 51 52  2  0
 52 53  1  0
 53 54  2  0
 54  2  1  0
  9  5  1  0
 14 12  1  0
 41 15  1  0
 48 43  1  0
 54 49  1  0
 25 21  1  0
 40 26  1  0
 34 29  1  0
 40 35  1  0
M  END
>  <Candidate_ID>  (336) 
CAND_R2_336

>  <Candidate_Name>  (336) 
BDO-NH-glycidyl

>  <Parent_Seed_ID>  (336) 
TRAIN_122

>  <Parent_Name>  (336) 
BDO

>  <Transformation_Code>  (336) 
NH_glycidyl

>  <Design_Family>  (336) 
P-N-S

>  <Preparation_Type>  (336) 
Co-curing

>  <Synthesis_Level>  (336) 
B

>  <Parent_Tanimoto_r3>  (336) 
0.5983606557377049

>  <Max_Train_Tanimoto_r3>  (336) 
0.5983606557377049

>  <Risk_Flags>  (336) 
large structural change from parent; candidate may be outside strict in-domain threshold

$$$$
CAND_R2_337 | BDO-NH-glycidyl-2
     RDKit          2D

 54 63  0  0  0  0  0  0  0  0999 V2000
    1.8468    4.5590    0.0000 O   0  0  0  0  0  0  0  0  0  0  0  0
    0.4764    5.1691    0.0000 P   0  0  0  0  0  0  0  0  0  0  0  0
    0.1136    3.7136    0.0000 C   0  0  0  0  0  0  0  0  0  0  0  0
    1.1926    2.6716    0.0000 C   0  0  0  0  0  0  0  0  0  0  0  0
    0.8297    1.2162    0.0000 N   0  0  0  0  0  0  0  0  0  0  0  0
    1.9087    0.1742    0.0000 C   0  0  0  0  0  0  0  0  0  0  0  0
    3.3859    0.4347    0.0000 N   0  0  0  0  0  0  0  0  0  0  0  0
    4.0901   -0.8897    0.0000 N   0  0  0  0  0  0  0  0  0  0  0  0
    3.0481   -1.9688    0.0000 C   0  0  0  0  0  0  0  0  0  0  0  0
    3.3086   -3.4460    0.0000 N   0  0  0  0  0  0  0  0  0  0  0  0
    4.7181   -3.9590    0.0000 C   0  0  0  0  0  0  0  0  0  0  0  0
    5.8672   -2.9948    0.0000 C   0  0  0  0  0  0  0  0  0  0  0  0
    6.3802   -1.5853    0.0000 C   0  0  0  0  0  0  0  0  0  0  0  0
    7.3444   -2.7343    0.0000 O   0  0  0  0  0  0  0  0  0  0  0  0
    2.1595   -4.4101    0.0000 C   0  0  0  0  0  0  0  0  0  0  0  0
    2.4200   -5.8874    0.0000 C   0  0  0  0  0  0  0  0  0  0  0  0
    3.7682   -6.5449    0.0000 C   0  0  0  0  0  0  0  0  0  0  0  0
    3.5594   -8.0303    0.0000 C   0  0  0  0  0  0  0  0  0  0  0  0
    2.0822   -8.2908    0.0000 C   0  0  0  0  0  0  0  0  0  0  0  0
    1.3780   -6.9664    0.0000 S   0  0  0  0  0  0  0  0  0  0  0  0
    0.7500   -3.8971    0.0000 P   0  0  0  0  0  0  0  0  0  0  0  0
    1.5000   -2.5981    0.0000 O   0  0  0  0  0  0  0  0  0  0  0  0
    0.4895   -5.3743    0.0000 O   0  0  0  0  0  0  0  0  0  0  0  0
   -0.9200   -5.8874    0.0000 C   0  0  0  0  0  0  0  0  0  0  0  0
   -1.1805   -7.3646    0.0000 C   0  0  0  0  0  0  0  0  0  0  0  0
   -2.5900   -7.8776    0.0000 C   0  0  0  0  0  0  0  0  0  0  0  0
   -3.7391   -6.9134    0.0000 C   0  0  0  0  0  0  0  0  0  0  0  0
   -3.4786   -5.4362    0.0000 C   0  0  0  0  0  0  0  0  0  0  0  0
   -2.0691   -4.9232    0.0000 C   0  0  0  0  0  0  0  0  0  0  0  0
   -1.8086   -3.4460    0.0000 C   0  0  0  0  0  0  0  0  0  0  0  0
   -2.9577   -2.4818    0.0000 C   0  0  0  0  0  0  0  0  0  0  0  0
   -2.6972   -1.0046    0.0000 C   0  0  0  0  0  0  0  0  0  0  0  0
   -1.2877   -0.4915    0.0000 C   0  0  0  0  0  0  0  0  0  0  0  0
   -0.1386   -1.4557    0.0000 C   0  0  0  0  0  0  0  0  0  0  0  0
   -0.3991   -2.9329    0.0000 C   0  0  0  0  0  0  0  0  0  0  0  0
    1.6999   -1.3112    0.0000 N   0  0  0  0  0  0  0  0  0  0  0  0
    2.6345    3.0851    0.0000 C   0  0  0  0  0  0  0  0  0  0  0  0
    3.1475    4.4946    0.0000 C   0  0  0  0  0  0  0  0  0  0  0  0
    4.6466    4.4423    0.0000 C   0  0  0  0  0  0  0  0  0  0  0  0
    5.0600    3.0004    0.0000 C   0  0  0  0  0  0  0  0  0  0  0  0
    3.8165    2.1616    0.0000 S   0  0  0  0  0  0  0  0  0  0  0  0
   -1.0199    5.2737    0.0000 O   0  0  0  0  0  0  0  0  0  0  0  0
   -1.6775    6.6219    0.0000 C   0  0  0  0  0  0  0  0  0  0  0  0
   -3.1738    6.7265    0.0000 C   0  0  0  0  0  0  0  0  0  0  0  0
   -3.8314    8.0747    0.0000 C   0  0  0  0  0  0  0  0  0  0  0  0
   -2.9926    9.3183    0.0000 C   0  0  0  0  0  0  0  0  0  0  0  0
   -1.4962    9.2136    0.0000 C   0  0  0  0  0  0  0  0  0  0  0  0
   -0.8387    7.8655    0.0000 C   0  0  0  0  0  0  0  0  0  0  0  0
    0.6577    7.7608    0.0000 C   0  0  0  0  0  0  0  0  0  0  0  0
    1.4965    9.0044    0.0000 C   0  0  0  0  0  0  0  0  0  0  0  0
    2.9928    8.8997    0.0000 C   0  0  0  0  0  0  0  0  0  0  0  0
    3.6504    7.5515    0.0000 C   0  0  0  0  0  0  0  0  0  0  0  0
    2.8116    6.3080    0.0000 C   0  0  0  0  0  0  0  0  0  0  0  0
    1.3152    6.4126    0.0000 C   0  0  0  0  0  0  0  0  0  0  0  0
  1  2  2  0
  2  3  1  0
  3  4  1  0
  4  5  1  0
  5  6  1  0
  6  7  2  0
  7  8  1  0
  8  9  1  0
  9 10  1  0
 10 11  1  0
 11 12  1  0
 12 13  1  0
 13 14  1  0
 10 15  1  0
 15 16  1  0
 16 17  2  0
 17 18  1  0
 18 19  2  0
 19 20  1  0
 15 21  1  0
 21 22  2  0
 21 23  1  0
 23 24  1  0
 24 25  2  0
 25 26  1  0
 26 27  2  0
 27 28  1  0
 28 29  2  0
 29 30  1  0
 30 31  2  0
 31 32  1  0
 32 33  2  0
 33 34  1  0
 34 35  2  0
  9 36  2  0
  4 37  1  0
 37 38  2  0
 38 39  1  0
 39 40  2  0
 40 41  1  0
  2 42  1  0
 42 43  1  0
 43 44  2  0
 44 45  1  0
 45 46  2  0
 46 47  1  0
 47 48  2  0
 48 49  1  0
 49 50  2  0
 50 51  1  0
 51 52  2  0
 52 53  1  0
 53 54  2  0
 54  2  1  0
 36  6  1  0
 41 37  1  0
 48 43  1  0
 54 49  1  0
 14 12  1  0
 20 16  1  0
 35 21  1  0
 29 24  1  0
 35 30  1  0
M  END
>  <Candidate_ID>  (337) 
CAND_R2_337

>  <Candidate_Name>  (337) 
BDO-NH-glycidyl-2

>  <Parent_Seed_ID>  (337) 
TRAIN_122

>  <Parent_Name>  (337) 
BDO

>  <Transformation_Code>  (337) 
NH_glycidyl

>  <Design_Family>  (337) 
P-N-S

>  <Preparation_Type>  (337) 
Co-curing

>  <Synthesis_Level>  (337) 
B

>  <Parent_Tanimoto_r3>  (337) 
0.5725806451612904

>  <Max_Train_Tanimoto_r3>  (337) 
0.5725806451612904

>  <Risk_Flags>  (337) 
large structural change from parent; candidate may be outside strict in-domain threshold

$$$$
CAND_R2_338 | BDO-aromatic-S-to-O
     RDKit          2D

 50 58  0  0  0  0  0  0  0  0999 V2000
   10.9720   -6.1824    0.0000 O   0  0  0  0  0  0  0  0  0  0  0  0
   12.1855   -5.3008    0.0000 P   0  0  0  0  0  0  0  0  0  0  0  0
   11.1065   -4.2588    0.0000 C   0  0  0  0  0  0  0  0  0  0  0  0
    9.6646   -4.6722    0.0000 C   0  0  0  0  0  0  0  0  0  0  0  0
    8.5856   -3.6302    0.0000 N   0  0  0  0  0  0  0  0  0  0  0  0
    7.1437   -4.0437    0.0000 C   0  0  0  0  0  0  0  0  0  0  0  0
    6.6307   -5.4532    0.0000 N   0  0  0  0  0  0  0  0  0  0  0  0
    5.1316   -5.4009    0.0000 N   0  0  0  0  0  0  0  0  0  0  0  0
    4.7181   -3.9590    0.0000 C   0  0  0  0  0  0  0  0  0  0  0  0
    3.3086   -3.4460    0.0000 N   0  0  0  0  0  0  0  0  0  0  0  0
    2.1595   -4.4101    0.0000 C   0  0  0  0  0  0  0  0  0  0  0  0
    2.4200   -5.8874    0.0000 C   0  0  0  0  0  0  0  0  0  0  0  0
    3.7682   -6.5449    0.0000 C   0  0  0  0  0  0  0  0  0  0  0  0
    3.5594   -8.0303    0.0000 C   0  0  0  0  0  0  0  0  0  0  0  0
    2.0822   -8.2908    0.0000 C   0  0  0  0  0  0  0  0  0  0  0  0
    1.3780   -6.9664    0.0000 O   0  0  0  0  0  0  0  0  0  0  0  0
    0.7500   -3.8971    0.0000 P   0  0  0  0  0  0  0  0  0  0  0  0
    0.4895   -5.3743    0.0000 O   0  0  0  0  0  0  0  0  0  0  0  0
    1.5000   -2.5981    0.0000 O   0  0  0  0  0  0  0  0  0  0  0  0
    0.7500   -1.2990    0.0000 C   0  0  0  0  0  0  0  0  0  0  0  0
    1.5000    0.0000    0.0000 C   0  0  0  0  0  0  0  0  0  0  0  0
    0.7500    1.2990    0.0000 C   0  0  0  0  0  0  0  0  0  0  0  0
   -0.7500    1.2990    0.0000 C   0  0  0  0  0  0  0  0  0  0  0  0
   -1.5000    0.0000    0.0000 C   0  0  0  0  0  0  0  0  0  0  0  0
   -0.7500   -1.2990    0.0000 C   0  0  0  0  0  0  0  0  0  0  0  0
   -1.5000   -2.5981    0.0000 C   0  0  0  0  0  0  0  0  0  0  0  0
   -3.0000   -2.5981    0.0000 C   0  0  0  0  0  0  0  0  0  0  0  0
   -3.7500   -3.8971    0.0000 C   0  0  0  0  0  0  0  0  0  0  0  0
   -3.0000   -5.1962    0.0000 C   0  0  0  0  0  0  0  0  0  0  0  0
   -1.5000   -5.1962    0.0000 C   0  0  0  0  0  0  0  0  0  0  0  0
   -0.7500   -3.8971    0.0000 C   0  0  0  0  0  0  0  0  0  0  0  0
    5.9617   -3.1202    0.0000 N   0  0  0  0  0  0  0  0  0  0  0  0
    9.3017   -6.1277    0.0000 C   0  0  0  0  0  0  0  0  0  0  0  0
   10.2659   -7.2767    0.0000 C   0  0  0  0  0  0  0  0  0  0  0  0
    9.4710   -8.5488    0.0000 C   0  0  0  0  0  0  0  0  0  0  0  0
    8.0156   -8.1859    0.0000 C   0  0  0  0  0  0  0  0  0  0  0  0
    7.9110   -6.6896    0.0000 S   0  0  0  0  0  0  0  0  0  0  0  0
   13.0243   -4.0572    0.0000 O   0  0  0  0  0  0  0  0  0  0  0  0
   14.5207   -4.1618    0.0000 C   0  0  0  0  0  0  0  0  0  0  0  0
   15.3594   -2.9183    0.0000 C   0  0  0  0  0  0  0  0  0  0  0  0
   16.8558   -3.0229    0.0000 C   0  0  0  0  0  0  0  0  0  0  0  0
   17.5133   -4.3711    0.0000 C   0  0  0  0  0  0  0  0  0  0  0  0
   16.6746   -5.6147    0.0000 C   0  0  0  0  0  0  0  0  0  0  0  0
   15.1782   -5.5100    0.0000 C   0  0  0  0  0  0  0  0  0  0  0  0
   14.3394   -6.7536    0.0000 C   0  0  0  0  0  0  0  0  0  0  0  0
   14.9970   -8.1018    0.0000 C   0  0  0  0  0  0  0  0  0  0  0  0
   14.1582   -9.3453    0.0000 C   0  0  0  0  0  0  0  0  0  0  0  0
   12.6618   -9.2407    0.0000 C   0  0  0  0  0  0  0  0  0  0  0  0
   12.0043   -7.8925    0.0000 C   0  0  0  0  0  0  0  0  0  0  0  0
   12.8431   -6.6490    0.0000 C   0  0  0  0  0  0  0  0  0  0  0  0
  1  2  2  0
  2  3  1  0
  3  4  1  0
  4  5  1  0
  5  6  1  0
  6  7  2  0
  7  8  1  0
  8  9  1  0
  9 10  1  0
 10 11  1  0
 11 12  1  0
 12 13  2  0
 13 14  1  0
 14 15  2  0
 15 16  1  0
 11 17  1  0
 17 18  2  0
 17 19  1  0
 19 20  1  0
 20 21  2  0
 21 22  1  0
 22 23  2  0
 23 24  1  0
 24 25  2  0
 25 26  1  0
 26 27  2  0
 27 28  1  0
 28 29  2  0
 29 30  1  0
 30 31  2  0
  9 32  2  0
  4 33  1  0
 33 34  2  0
 34 35  1  0
 35 36  2  0
 36 37  1  0
  2 38  1  0
 38 39  1  0
 39 40  2  0
 40 41  1  0
 41 42  2  0
 42 43  1  0
 43 44  2  0
 44 45  1  0
 45 46  2  0
 46 47  1  0
 47 48  2  0
 48 49  1  0
 49 50  2  0
 50  2  1  0
 32  6  1  0
 37 33  1  0
 44 39  1  0
 50 45  1  0
 16 12  1  0
 31 17  1  0
 25 20  1  0
 31 26  1  0
M  END
>  <Candidate_ID>  (338) 
CAND_R2_338

>  <Candidate_Name>  (338) 
BDO-aromatic-S-to-O

>  <Parent_Seed_ID>  (338) 
TRAIN_122

>  <Parent_Name>  (338) 
BDO

>  <Transformation_Code>  (338) 
aromatic_S_to_O

>  <Design_Family>  (338) 
P-N-S

>  <Preparation_Type>  (338) 
Co-curing

>  <Synthesis_Level>  (338) 
B

>  <Parent_Tanimoto_r3>  (338) 
0.8058252427184466

>  <Max_Train_Tanimoto_r3>  (338) 
0.8058252427184466

>  <Risk_Flags>  (338) 
none

$$$$
CAND_R2_339 | BDO-aromatic-S-to-O-all
     RDKit          2D

 50 58  0  0  0  0  0  0  0  0999 V2000
   11.2195   -5.9261    0.0000 O   0  0  0  0  0  0  0  0  0  0  0  0
   10.3807   -7.1697    0.0000 P   0  0  0  0  0  0  0  0  0  0  0  0
    9.3017   -6.1277    0.0000 C   0  0  0  0  0  0  0  0  0  0  0  0
    9.6646   -4.6722    0.0000 C   0  0  0  0  0  0  0  0  0  0  0  0
    8.5856   -3.6302    0.0000 N   0  0  0  0  0  0  0  0  0  0  0  0
    7.1437   -4.0437    0.0000 C   0  0  0  0  0  0  0  0  0  0  0  0
    6.6307   -5.4532    0.0000 N   0  0  0  0  0  0  0  0  0  0  0  0
    5.1316   -5.4009    0.0000 N   0  0  0  0  0  0  0  0  0  0  0  0
    4.7181   -3.9590    0.0000 C   0  0  0  0  0  0  0  0  0  0  0  0
    3.3086   -3.4460    0.0000 N   0  0  0  0  0  0  0  0  0  0  0  0
    2.1595   -4.4101    0.0000 C   0  0  0  0  0  0  0  0  0  0  0  0
    2.4200   -5.8874    0.0000 C   0  0  0  0  0  0  0  0  0  0  0  0
    3.7682   -6.5449    0.0000 C   0  0  0  0  0  0  0  0  0  0  0  0
    3.5594   -8.0303    0.0000 C   0  0  0  0  0  0  0  0  0  0  0  0
    2.0822   -8.2908    0.0000 C   0  0  0  0  0  0  0  0  0  0  0  0
    1.3780   -6.9664    0.0000 O   0  0  0  0  0  0  0  0  0  0  0  0
    0.7500   -3.8971    0.0000 P   0  0  0  0  0  0  0  0  0  0  0  0
    0.4895   -5.3743    0.0000 O   0  0  0  0  0  0  0  0  0  0  0  0
    1.5000   -2.5981    0.0000 O   0  0  0  0  0  0  0  0  0  0  0  0
    0.7500   -1.2990    0.0000 C   0  0  0  0  0  0  0  0  0  0  0  0
    1.5000    0.0000    0.0000 C   0  0  0  0  0  0  0  0  0  0  0  0
    0.7500    1.2990    0.0000 C   0  0  0  0  0  0  0  0  0  0  0  0
   -0.7500    1.2990    0.0000 C   0  0  0  0  0  0  0  0  0  0  0  0
   -1.5000    0.0000    0.0000 C   0  0  0  0  0  0  0  0  0  0  0  0
   -0.7500   -1.2990    0.0000 C   0  0  0  0  0  0  0  0  0  0  0  0
   -1.5000   -2.5981    0.0000 C   0  0  0  0  0  0  0  0  0  0  0  0
   -3.0000   -2.5981    0.0000 C   0  0  0  0  0  0  0  0  0  0  0  0
   -3.7500   -3.8971    0.0000 C   0  0  0  0  0  0  0  0  0  0  0  0
   -3.0000   -5.1962    0.0000 C   0  0  0  0  0  0  0  0  0  0  0  0
   -1.5000   -5.1962    0.0000 C   0  0  0  0  0  0  0  0  0  0  0  0
   -0.7500   -3.8971    0.0000 C   0  0  0  0  0  0  0  0  0  0  0  0
    5.9617   -3.1202    0.0000 N   0  0  0  0  0  0  0  0  0  0  0  0
   11.1065   -4.2588    0.0000 C   0  0  0  0  0  0  0  0  0  0  0  0
   11.6195   -2.8492    0.0000 C   0  0  0  0  0  0  0  0  0  0  0  0
   13.1186   -2.9016    0.0000 C   0  0  0  0  0  0  0  0  0  0  0  0
   13.5321   -4.3435    0.0000 C   0  0  0  0  0  0  0  0  0  0  0  0
   12.2885   -5.1823    0.0000 O   0  0  0  0  0  0  0  0  0  0  0  0
    9.1672   -8.0513    0.0000 O   0  0  0  0  0  0  0  0  0  0  0  0
    9.3240   -9.5431    0.0000 C   0  0  0  0  0  0  0  0  0  0  0  0
    8.1105  -10.4248    0.0000 C   0  0  0  0  0  0  0  0  0  0  0  0
    8.2673  -11.9166    0.0000 C   0  0  0  0  0  0  0  0  0  0  0  0
    9.6376  -12.5267    0.0000 C   0  0  0  0  0  0  0  0  0  0  0  0
   10.8511  -11.6450    0.0000 C   0  0  0  0  0  0  0  0  0  0  0  0
   10.6943  -10.1532    0.0000 C   0  0  0  0  0  0  0  0  0  0  0  0
   11.9079   -9.2715    0.0000 C   0  0  0  0  0  0  0  0  0  0  0  0
   13.2782   -9.8817    0.0000 C   0  0  0  0  0  0  0  0  0  0  0  0
   14.4917   -9.0000    0.0000 C   0  0  0  0  0  0  0  0  0  0  0  0
   14.3349   -7.5082    0.0000 C   0  0  0  0  0  0  0  0  0  0  0  0
   12.9646   -6.8981    0.0000 C   0  0  0  0  0  0  0  0  0  0  0  0
   11.7511   -7.7798    0.0000 C   0  0  0  0  0  0  0  0  0  0  0  0
  1  2  2  0
  2  3  1  0
  3  4  1  0
  4  5  1  0
  5  6  1  0
  6  7  2  0
  7  8  1  0
  8  9  1  0
  9 10  1  0
 10 11  1  0
 11 12  1  0
 12 13  2  0
 13 14  1  0
 14 15  2  0
 15 16  1  0
 11 17  1  0
 17 18  2  0
 17 19  1  0
 19 20  1  0
 20 21  2  0
 21 22  1  0
 22 23  2  0
 23 24  1  0
 24 25  2  0
 25 26  1  0
 26 27  2  0
 27 28  1  0
 28 29  2  0
 29 30  1  0
 30 31  2  0
  9 32  2  0
  4 33  1  0
 33 34  2  0
 34 35  1  0
 35 36  2  0
 36 37  1  0
  2 38  1  0
 38 39  1  0
 39 40  2  0
 40 41  1  0
 41 42  2  0
 42 43  1  0
 43 44  2  0
 44 45  1  0
 45 46  2  0
 46 47  1  0
 47 48  2  0
 48 49  1  0
 49 50  2  0
 50  2  1  0
 32  6  1  0
 37 33  1  0
 44 39  1  0
 50 45  1  0
 16 12  1  0
 31 17  1  0
 25 20  1  0
 31 26  1  0
M  END
>  <Candidate_ID>  (339) 
CAND_R2_339

>  <Candidate_Name>  (339) 
BDO-aromatic-S-to-O-all

>  <Parent_Seed_ID>  (339) 
TRAIN_122

>  <Parent_Name>  (339) 
BDO

>  <Transformation_Code>  (339) 
aromatic_S_to_O_all

>  <Design_Family>  (339) 
P-N

>  <Preparation_Type>  (339) 
Additive

>  <Synthesis_Level>  (339) 
B

>  <Parent_Tanimoto_r3>  (339) 
0.6363636363636364

>  <Max_Train_Tanimoto_r3>  (339) 
0.723404255319149

>  <Risk_Flags>  (339) 
large structural change from parent

$$$$
CAND_R2_340 | TDA-amino
     RDKit          2D

 65 68  0  0  0  0  0  0  0  0999 V2000
  -22.4898   -3.2529    0.0000 C   0  0  0  0  0  0  0  0  0  0  0  0
  -21.0803   -3.7659    0.0000 C   0  0  0  0  0  0  0  0  0  0  0  0
  -20.8198   -5.2431    0.0000 O   0  0  0  0  0  0  0  0  0  0  0  0
  -19.4102   -5.7561    0.0000 Si  0  0  0  0  0  4  0  0  0  0  0  0
  -18.0007   -6.2692    0.0000 C   0  0  0  0  0  0  0  0  0  0  0  0
  -16.8516   -5.3050    0.0000 C   0  0  0  0  0  0  0  0  0  0  0  0
  -15.4421   -5.8180    0.0000 C   0  0  0  0  0  0  0  0  0  0  0  0
  -14.2930   -4.8538    0.0000 N   0  0  0  0  0  0  0  0  0  0  0  0
  -12.8835   -5.3669    0.0000 C   0  0  0  0  0  0  0  0  0  0  0  0
  -11.7344   -4.4027    0.0000 C   0  0  0  0  0  0  0  0  0  0  0  0
  -11.9949   -2.9255    0.0000 O   0  0  0  0  0  0  0  0  0  0  0  0
  -10.3249   -4.9157    0.0000 C   0  0  0  0  0  0  0  0  0  0  0  0
   -9.1758   -3.9515    0.0000 N   0  0  0  0  0  0  0  0  0  0  0  0
   -9.4363   -2.4743    0.0000 C   0  0  0  0  0  0  0  0  0  0  0  0
  -10.8458   -1.9613    0.0000 O   0  0  0  0  0  0  0  0  0  0  0  0
   -8.2872   -1.5101    0.0000 N   0  0  0  0  0  0  0  0  0  0  0  0
   -8.5477   -0.0329    0.0000 C   0  0  0  0  0  0  0  0  0  0  0  0
   -7.3986    0.9313    0.0000 C   0  0  0  0  0  0  0  0  0  0  0  0
   -5.9891    0.4182    0.0000 O   0  0  0  0  0  0  0  0  0  0  0  0
   -7.6591    2.4085    0.0000 C   0  0  0  0  0  0  0  0  0  0  0  0
   -6.5100    3.3726    0.0000 N   0  0  0  0  0  0  0  0  0  0  0  0
   -6.7705    4.8499    0.0000 C   0  0  0  0  0  0  0  0  0  0  0  0
   -5.6214    5.8140    0.0000 C   0  0  0  0  0  0  0  0  0  0  0  0
   -5.8819    7.2913    0.0000 C   0  0  0  0  0  0  0  0  0  0  0  0
   -4.7328    8.2554    0.0000 Si  0  0  0  0  0  4  0  0  0  0  0  0
   -3.5838    9.2196    0.0000 O   0  0  0  0  0  0  0  0  0  0  0  0
   -2.1742    8.7066    0.0000 C   0  0  0  0  0  0  0  0  0  0  0  0
   -1.0252    9.6708    0.0000 C   0  0  0  0  0  0  0  0  0  0  0  0
   -5.6970    9.4045    0.0000 O   0  0  0  0  0  0  0  0  0  0  0  0
   -5.1840   10.8140    0.0000 C   0  0  0  0  0  0  0  0  0  0  0  0
   -6.1482   11.9631    0.0000 C   0  0  0  0  0  0  0  0  0  0  0  0
   -3.7687    7.1064    0.0000 O   0  0  0  0  0  0  0  0  0  0  0  0
   -2.2915    7.3668    0.0000 C   0  0  0  0  0  0  0  0  0  0  0  0
   -1.3273    6.2178    0.0000 C   0  0  0  0  0  0  0  0  0  0  0  0
   -6.8777   -2.0232    0.0000 C   0  0  0  0  0  0  0  0  0  0  0  0
   -5.7286   -1.0590    0.0000 O   0  0  0  0  0  0  0  0  0  0  0  0
   -6.6172   -3.5004    0.0000 N   0  0  0  0  0  0  0  0  0  0  0  0
   -5.2077   -4.0134    0.0000 C   0  0  0  0  0  0  0  0  0  0  0  0
   -4.0586   -3.0492    0.0000 C   0  0  0  0  0  0  0  0  0  0  0  0
   -4.3191   -1.5720    0.0000 O   0  0  0  0  0  0  0  0  0  0  0  0
   -2.6491   -3.5623    0.0000 C   0  0  0  0  0  0  0  0  0  0  0  0
   -1.5000   -2.5981    0.0000 P   0  0  0  0  0  0  0  0  0  0  0  0
   -2.6491   -1.6339    0.0000 O   0  0  0  0  0  0  0  0  0  0  0  0
   -0.7500   -3.8971    0.0000 O   0  0  0  0  0  0  0  0  0  0  0  0
    0.7500   -3.8971    0.0000 C   0  0  0  0  0  0  0  0  0  0  0  0
    1.5000   -5.1962    0.0000 C   0  0  0  0  0  0  0  0  0  0  0  0
    3.0000   -5.1962    0.0000 C   0  0  0  0  0  0  0  0  0  0  0  0
    3.7500   -3.8971    0.0000 C   0  0  0  0  0  0  0  0  0  0  0  0
    5.2500   -3.8971    0.0000 N   0  0  0  0  0  0  0  0  0  0  0  0
    3.0000   -2.5981    0.0000 C   0  0  0  0  0  0  0  0  0  0  0  0
    1.5000   -2.5981    0.0000 C   0  0  0  0  0  0  0  0  0  0  0  0
    0.7500   -1.2990    0.0000 C   0  0  0  0  0  0  0  0  0  0  0  0
    1.5000    0.0000    0.0000 C   0  0  0  0  0  0  0  0  0  0  0  0
    0.7500    1.2990    0.0000 C   0  0  0  0  0  0  0  0  0  0  0  0
   -0.7500    1.2990    0.0000 C   0  0  0  0  0  0  0  0  0  0  0  0
   -1.5000    0.0000    0.0000 C   0  0  0  0  0  0  0  0  0  0  0  0
   -0.7500   -1.2990    0.0000 C   0  0  0  0  0  0  0  0  0  0  0  0
   -7.7663   -4.4646    0.0000 C   0  0  0  0  0  0  0  0  0  0  0  0
   -7.5058   -5.9418    0.0000 O   0  0  0  0  0  0  0  0  0  0  0  0
  -19.9233   -7.1657    0.0000 O   0  0  0  0  0  0  0  0  0  0  0  0
  -21.4005   -7.4261    0.0000 C   0  0  0  0  0  0  0  0  0  0  0  0
  -21.9135   -8.8357    0.0000 C   0  0  0  0  0  0  0  0  0  0  0  0
  -18.8972   -4.3466    0.0000 O   0  0  0  0  0  0  0  0  0  0  0  0
  -19.8614   -3.1975    0.0000 C   0  0  0  0  0  0  0  0  0  0  0  0
  -19.3484   -1.7880    0.0000 C   0  0  0  0  0  0  0  0  0  0  0  0
  1  2  1  0
  2  3  1  0
  3  4  1  0
  4  5  1  0
  5  6  1  0
  6  7  1  0
  7  8  1  0
  8  9  1  0
  9 10  1  0
 10 11  1  0
 10 12  1  0
 12 13  1  0
 13 14  1  0
 14 15  2  0
 14 16  1  0
 16 17  1  0
 17 18  1  0
 18 19  1  0
 18 20  1  0
 20 21  1  0
 21 22  1  0
 22 23  1  0
 23 24  1  0
 24 25  1  0
 25 26  1  0
 26 27  1  0
 27 28  1  0
 25 29  1  0
 29 30  1  0
 30 31  1  0
 25 32  1  0
 32 33  1  0
 33 34  1  0
 16 35  1  0
 35 36  2  0
 35 37  1  0
 37 38  1  0
 38 39  1  0
 39 40  1  0
 39 41  1  0
 41 42  1  0
 42 43  2  0
 42 44  1  0
 44 45  1  0
 45 46  2  0
 46 47  1  0
 47 48  2  0
 48 49  1  0
 48 50  1  0
 50 51  2  0
 51 52  1  0
 52 53  2  0
 53 54  1  0
 54 55  2  0
 55 56  1  0
 56 57  2  0
 37 58  1  0
 58 59  2  0
  4 60  1  0
 60 61  1  0
 61 62  1  0
  4 63  1  0
 63 64  1  0
 64 65  1  0
 58 13  1  0
 57 42  1  0
 51 45  1  0
 57 52  1  0
M  END
>  <Candidate_ID>  (340) 
CAND_R2_340

>  <Candidate_Name>  (340) 
TDA-amino

>  <Parent_Seed_ID>  (340) 
TRAIN_010

>  <Parent_Name>  (340) 
TDA

>  <Transformation_Code>  (340) 
amino

>  <Design_Family>  (340) 
P-N-Si

>  <Preparation_Type>  (340) 
Co-curing

>  <Synthesis_Level>  (340) 
B

>  <Parent_Tanimoto_r3>  (340) 
0.7777777777777778

>  <Max_Train_Tanimoto_r3>  (340) 
0.7777777777777778

>  <Risk_Flags>  (340) 
DOPO-core substitution route needs confirmation

$$$$
CAND_R2_341 | TDA-hydroxy
     RDKit          2D

 65 68  0  0  0  0  0  0  0  0999 V2000
  -22.4898   -3.2529    0.0000 C   0  0  0  0  0  0  0  0  0  0  0  0
  -21.0803   -3.7659    0.0000 C   0  0  0  0  0  0  0  0  0  0  0  0
  -20.8198   -5.2431    0.0000 O   0  0  0  0  0  0  0  0  0  0  0  0
  -19.4102   -5.7561    0.0000 Si  0  0  0  0  0  4  0  0  0  0  0  0
  -18.0007   -6.2692    0.0000 C   0  0  0  0  0  0  0  0  0  0  0  0
  -16.8516   -5.3050    0.0000 C   0  0  0  0  0  0  0  0  0  0  0  0
  -15.4421   -5.8180    0.0000 C   0  0  0  0  0  0  0  0  0  0  0  0
  -14.2930   -4.8538    0.0000 N   0  0  0  0  0  0  0  0  0  0  0  0
  -12.8835   -5.3669    0.0000 C   0  0  0  0  0  0  0  0  0  0  0  0
  -11.7344   -4.4027    0.0000 C   0  0  0  0  0  0  0  0  0  0  0  0
  -11.9949   -2.9255    0.0000 O   0  0  0  0  0  0  0  0  0  0  0  0
  -10.3249   -4.9157    0.0000 C   0  0  0  0  0  0  0  0  0  0  0  0
   -9.1758   -3.9515    0.0000 N   0  0  0  0  0  0  0  0  0  0  0  0
   -9.4363   -2.4743    0.0000 C   0  0  0  0  0  0  0  0  0  0  0  0
  -10.8458   -1.9613    0.0000 O   0  0  0  0  0  0  0  0  0  0  0  0
   -8.2872   -1.5101    0.0000 N   0  0  0  0  0  0  0  0  0  0  0  0
   -8.5477   -0.0329    0.0000 C   0  0  0  0  0  0  0  0  0  0  0  0
   -7.3986    0.9313    0.0000 C   0  0  0  0  0  0  0  0  0  0  0  0
   -5.9891    0.4182    0.0000 O   0  0  0  0  0  0  0  0  0  0  0  0
   -7.6591    2.4085    0.0000 C   0  0  0  0  0  0  0  0  0  0  0  0
   -6.5100    3.3726    0.0000 N   0  0  0  0  0  0  0  0  0  0  0  0
   -6.7705    4.8499    0.0000 C   0  0  0  0  0  0  0  0  0  0  0  0
   -5.6214    5.8140    0.0000 C   0  0  0  0  0  0  0  0  0  0  0  0
   -5.8819    7.2913    0.0000 C   0  0  0  0  0  0  0  0  0  0  0  0
   -4.7328    8.2554    0.0000 Si  0  0  0  0  0  4  0  0  0  0  0  0
   -3.5838    9.2196    0.0000 O   0  0  0  0  0  0  0  0  0  0  0  0
   -2.1742    8.7066    0.0000 C   0  0  0  0  0  0  0  0  0  0  0  0
   -1.0252    9.6708    0.0000 C   0  0  0  0  0  0  0  0  0  0  0  0
   -5.6970    9.4045    0.0000 O   0  0  0  0  0  0  0  0  0  0  0  0
   -5.1840   10.8140    0.0000 C   0  0  0  0  0  0  0  0  0  0  0  0
   -6.1482   11.9631    0.0000 C   0  0  0  0  0  0  0  0  0  0  0  0
   -3.7687    7.1064    0.0000 O   0  0  0  0  0  0  0  0  0  0  0  0
   -2.2915    7.3668    0.0000 C   0  0  0  0  0  0  0  0  0  0  0  0
   -1.3273    6.2178    0.0000 C   0  0  0  0  0  0  0  0  0  0  0  0
   -6.8777   -2.0232    0.0000 C   0  0  0  0  0  0  0  0  0  0  0  0
   -5.7286   -1.0590    0.0000 O   0  0  0  0  0  0  0  0  0  0  0  0
   -6.6172   -3.5004    0.0000 N   0  0  0  0  0  0  0  0  0  0  0  0
   -5.2077   -4.0134    0.0000 C   0  0  0  0  0  0  0  0  0  0  0  0
   -4.0586   -3.0492    0.0000 C   0  0  0  0  0  0  0  0  0  0  0  0
   -4.3191   -1.5720    0.0000 O   0  0  0  0  0  0  0  0  0  0  0  0
   -2.6491   -3.5623    0.0000 C   0  0  0  0  0  0  0  0  0  0  0  0
   -1.5000   -2.5981    0.0000 P   0  0  0  0  0  0  0  0  0  0  0  0
   -2.6491   -1.6339    0.0000 O   0  0  0  0  0  0  0  0  0  0  0  0
   -0.7500   -3.8971    0.0000 O   0  0  0  0  0  0  0  0  0  0  0  0
    0.7500   -3.8971    0.0000 C   0  0  0  0  0  0  0  0  0  0  0  0
    1.5000   -5.1962    0.0000 C   0  0  0  0  0  0  0  0  0  0  0  0
    3.0000   -5.1962    0.0000 C   0  0  0  0  0  0  0  0  0  0  0  0
    3.7500   -3.8971    0.0000 C   0  0  0  0  0  0  0  0  0  0  0  0
    5.2500   -3.8971    0.0000 O   0  0  0  0  0  0  0  0  0  0  0  0
    3.0000   -2.5981    0.0000 C   0  0  0  0  0  0  0  0  0  0  0  0
    1.5000   -2.5981    0.0000 C   0  0  0  0  0  0  0  0  0  0  0  0
    0.7500   -1.2990    0.0000 C   0  0  0  0  0  0  0  0  0  0  0  0
    1.5000    0.0000    0.0000 C   0  0  0  0  0  0  0  0  0  0  0  0
    0.7500    1.2990    0.0000 C   0  0  0  0  0  0  0  0  0  0  0  0
   -0.7500    1.2990    0.0000 C   0  0  0  0  0  0  0  0  0  0  0  0
   -1.5000    0.0000    0.0000 C   0  0  0  0  0  0  0  0  0  0  0  0
   -0.7500   -1.2990    0.0000 C   0  0  0  0  0  0  0  0  0  0  0  0
   -7.7663   -4.4646    0.0000 C   0  0  0  0  0  0  0  0  0  0  0  0
   -7.5058   -5.9418    0.0000 O   0  0  0  0  0  0  0  0  0  0  0  0
  -19.9233   -7.1657    0.0000 O   0  0  0  0  0  0  0  0  0  0  0  0
  -21.4005   -7.4261    0.0000 C   0  0  0  0  0  0  0  0  0  0  0  0
  -21.9135   -8.8357    0.0000 C   0  0  0  0  0  0  0  0  0  0  0  0
  -18.8972   -4.3466    0.0000 O   0  0  0  0  0  0  0  0  0  0  0  0
  -19.8614   -3.1975    0.0000 C   0  0  0  0  0  0  0  0  0  0  0  0
  -19.3484   -1.7880    0.0000 C   0  0  0  0  0  0  0  0  0  0  0  0
  1  2  1  0
  2  3  1  0
  3  4  1  0
  4  5  1  0
  5  6  1  0
  6  7  1  0
  7  8  1  0
  8  9  1  0
  9 10  1  0
 10 11  1  0
 10 12  1  0
 12 13  1  0
 13 14  1  0
 14 15  2  0
 14 16  1  0
 16 17  1  0
 17 18  1  0
 18 19  1  0
 18 20  1  0
 20 21  1  0
 21 22  1  0
 22 23  1  0
 23 24  1  0
 24 25  1  0
 25 26  1  0
 26 27  1  0
 27 28  1  0
 25 29  1  0
 29 30  1  0
 30 31  1  0
 25 32  1  0
 32 33  1  0
 33 34  1  0
 16 35  1  0
 35 36  2  0
 35 37  1  0
 37 38  1  0
 38 39  1  0
 39 40  1  0
 39 41  1  0
 41 42  1  0
 42 43  2  0
 42 44  1  0
 44 45  1  0
 45 46  2  0
 46 47  1  0
 47 48  2  0
 48 49  1  0
 48 50  1  0
 50 51  2  0
 51 52  1  0
 52 53  2  0
 53 54  1  0
 54 55  2  0
 55 56  1  0
 56 57  2  0
 37 58  1  0
 58 59  2  0
  4 60  1  0
 60 61  1  0
 61 62  1  0
  4 63  1  0
 63 64  1  0
 64 65  1  0
 58 13  1  0
 57 42  1  0
 51 45  1  0
 57 52  1  0
M  END
>  <Candidate_ID>  (341) 
CAND_R2_341

>  <Candidate_Name>  (341) 
TDA-hydroxy

>  <Parent_Seed_ID>  (341) 
TRAIN_010

>  <Parent_Name>  (341) 
TDA

>  <Transformation_Code>  (341) 
hydroxy

>  <Design_Family>  (341) 
P-N-Si

>  <Preparation_Type>  (341) 
Additive

>  <Synthesis_Level>  (341) 
B

>  <Parent_Tanimoto_r3>  (341) 
0.7777777777777778

>  <Max_Train_Tanimoto_r3>  (341) 
0.7777777777777778

>  <Risk_Flags>  (341) 
DOPO-core substitution route needs confirmation

$$$$
CAND_R2_342 | TDA-hydroxymethyl
     RDKit          2D

 66 69  0  0  0  0  0  0  0  0999 V2000
  -22.4898   -3.2529    0.0000 C   0  0  0  0  0  0  0  0  0  0  0  0
  -21.0803   -3.7659    0.0000 C   0  0  0  0  0  0  0  0  0  0  0  0
  -20.8198   -5.2431    0.0000 O   0  0  0  0  0  0  0  0  0  0  0  0
  -19.4102   -5.7561    0.0000 Si  0  0  0  0  0  4  0  0  0  0  0  0
  -18.0007   -6.2692    0.0000 C   0  0  0  0  0  0  0  0  0  0  0  0
  -16.8516   -5.3050    0.0000 C   0  0  0  0  0  0  0  0  0  0  0  0
  -15.4421   -5.8180    0.0000 C   0  0  0  0  0  0  0  0  0  0  0  0
  -14.2930   -4.8538    0.0000 N   0  0  0  0  0  0  0  0  0  0  0  0
  -12.8835   -5.3669    0.0000 C   0  0  0  0  0  0  0  0  0  0  0  0
  -11.7344   -4.4027    0.0000 C   0  0  0  0  0  0  0  0  0  0  0  0
  -11.9949   -2.9255    0.0000 O   0  0  0  0  0  0  0  0  0  0  0  0
  -10.3249   -4.9157    0.0000 C   0  0  0  0  0  0  0  0  0  0  0  0
   -9.1758   -3.9515    0.0000 N   0  0  0  0  0  0  0  0  0  0  0  0
   -9.4363   -2.4743    0.0000 C   0  0  0  0  0  0  0  0  0  0  0  0
  -10.8458   -1.9613    0.0000 O   0  0  0  0  0  0  0  0  0  0  0  0
   -8.2872   -1.5101    0.0000 N   0  0  0  0  0  0  0  0  0  0  0  0
   -8.5477   -0.0329    0.0000 C   0  0  0  0  0  0  0  0  0  0  0  0
   -7.3986    0.9313    0.0000 C   0  0  0  0  0  0  0  0  0  0  0  0
   -5.9891    0.4182    0.0000 O   0  0  0  0  0  0  0  0  0  0  0  0
   -7.6591    2.4085    0.0000 C   0  0  0  0  0  0  0  0  0  0  0  0
   -6.5100    3.3726    0.0000 N   0  0  0  0  0  0  0  0  0  0  0  0
   -6.7705    4.8499    0.0000 C   0  0  0  0  0  0  0  0  0  0  0  0
   -5.6214    5.8140    0.0000 C   0  0  0  0  0  0  0  0  0  0  0  0
   -5.8819    7.2913    0.0000 C   0  0  0  0  0  0  0  0  0  0  0  0
   -4.7328    8.2554    0.0000 Si  0  0  0  0  0  4  0  0  0  0  0  0
   -3.5838    9.2196    0.0000 O   0  0  0  0  0  0  0  0  0  0  0  0
   -2.1742    8.7066    0.0000 C   0  0  0  0  0  0  0  0  0  0  0  0
   -1.0252    9.6708    0.0000 C   0  0  0  0  0  0  0  0  0  0  0  0
   -5.6970    9.4045    0.0000 O   0  0  0  0  0  0  0  0  0  0  0  0
   -5.1840   10.8140    0.0000 C   0  0  0  0  0  0  0  0  0  0  0  0
   -6.1482   11.9631    0.0000 C   0  0  0  0  0  0  0  0  0  0  0  0
   -3.7687    7.1064    0.0000 O   0  0  0  0  0  0  0  0  0  0  0  0
   -2.2915    7.3668    0.0000 C   0  0  0  0  0  0  0  0  0  0  0  0
   -1.3273    6.2178    0.0000 C   0  0  0  0  0  0  0  0  0  0  0  0
   -6.8777   -2.0232    0.0000 C   0  0  0  0  0  0  0  0  0  0  0  0
   -5.7286   -1.0590    0.0000 O   0  0  0  0  0  0  0  0  0  0  0  0
   -6.6172   -3.5004    0.0000 N   0  0  0  0  0  0  0  0  0  0  0  0
   -5.2077   -4.0134    0.0000 C   0  0  0  0  0  0  0  0  0  0  0  0
   -4.0586   -3.0492    0.0000 C   0  0  0  0  0  0  0  0  0  0  0  0
   -4.3191   -1.5720    0.0000 O   0  0  0  0  0  0  0  0  0  0  0  0
   -2.6491   -3.5623    0.0000 C   0  0  0  0  0  0  0  0  0  0  0  0
   -1.5000   -2.5981    0.0000 P   0  0  0  0  0  0  0  0  0  0  0  0
   -2.6491   -1.6339    0.0000 O   0  0  0  0  0  0  0  0  0  0  0  0
   -0.7500   -3.8971    0.0000 O   0  0  0  0  0  0  0  0  0  0  0  0
    0.7500   -3.8971    0.0000 C   0  0  0  0  0  0  0  0  0  0  0  0
    1.5000   -5.1962    0.0000 C   0  0  0  0  0  0  0  0  0  0  0  0
    3.0000   -5.1962    0.0000 C   0  0  0  0  0  0  0  0  0  0  0  0
    3.7500   -3.8971    0.0000 C   0  0  0  0  0  0  0  0  0  0  0  0
    5.2500   -3.8971    0.0000 C   0  0  0  0  0  0  0  0  0  0  0  0
    6.0000   -5.1962    0.0000 O   0  0  0  0  0  0  0  0  0  0  0  0
    3.0000   -2.5981    0.0000 C   0  0  0  0  0  0  0  0  0  0  0  0
    1.5000   -2.5981    0.0000 C   0  0  0  0  0  0  0  0  0  0  0  0
    0.7500   -1.2990    0.0000 C   0  0  0  0  0  0  0  0  0  0  0  0
    1.5000    0.0000    0.0000 C   0  0  0  0  0  0  0  0  0  0  0  0
    0.7500    1.2990    0.0000 C   0  0  0  0  0  0  0  0  0  0  0  0
   -0.7500    1.2990    0.0000 C   0  0  0  0  0  0  0  0  0  0  0  0
   -1.5000    0.0000    0.0000 C   0  0  0  0  0  0  0  0  0  0  0  0
   -0.7500   -1.2990    0.0000 C   0  0  0  0  0  0  0  0  0  0  0  0
   -7.7663   -4.4646    0.0000 C   0  0  0  0  0  0  0  0  0  0  0  0
   -7.5058   -5.9418    0.0000 O   0  0  0  0  0  0  0  0  0  0  0  0
  -19.9233   -7.1657    0.0000 O   0  0  0  0  0  0  0  0  0  0  0  0
  -21.4005   -7.4261    0.0000 C   0  0  0  0  0  0  0  0  0  0  0  0
  -21.9135   -8.8357    0.0000 C   0  0  0  0  0  0  0  0  0  0  0  0
  -18.8972   -4.3466    0.0000 O   0  0  0  0  0  0  0  0  0  0  0  0
  -19.8614   -3.1975    0.0000 C   0  0  0  0  0  0  0  0  0  0  0  0
  -19.3484   -1.7880    0.0000 C   0  0  0  0  0  0  0  0  0  0  0  0
  1  2  1  0
  2  3  1  0
  3  4  1  0
  4  5  1  0
  5  6  1  0
  6  7  1  0
  7  8  1  0
  8  9  1  0
  9 10  1  0
 10 11  1  0
 10 12  1  0
 12 13  1  0
 13 14  1  0
 14 15  2  0
 14 16  1  0
 16 17  1  0
 17 18  1  0
 18 19  1  0
 18 20  1  0
 20 21  1  0
 21 22  1  0
 22 23  1  0
 23 24  1  0
 24 25  1  0
 25 26  1  0
 26 27  1  0
 27 28  1  0
 25 29  1  0
 29 30  1  0
 30 31  1  0
 25 32  1  0
 32 33  1  0
 33 34  1  0
 16 35  1  0
 35 36  2  0
 35 37  1  0
 37 38  1  0
 38 39  1  0
 39 40  1  0
 39 41  1  0
 41 42  1  0
 42 43  2  0
 42 44  1  0
 44 45  1  0
 45 46  2  0
 46 47  1  0
 47 48  2  0
 48 49  1  0
 49 50  1  0
 48 51  1  0
 51 52  2  0
 52 53  1  0
 53 54  2  0
 54 55  1  0
 55 56  2  0
 56 57  1  0
 57 58  2  0
 37 59  1  0
 59 60  2  0
  4 61  1  0
 61 62  1  0
 62 63  1  0
  4 64  1  0
 64 65  1  0
 65 66  1  0
 59 13  1  0
 58 42  1  0
 52 45  1  0
 58 53  1  0
M  END
>  <Candidate_ID>  (342) 
CAND_R2_342

>  <Candidate_Name>  (342) 
TDA-hydroxymethyl

>  <Parent_Seed_ID>  (342) 
TRAIN_010

>  <Parent_Name>  (342) 
TDA

>  <Transformation_Code>  (342) 
hydroxymethyl

>  <Design_Family>  (342) 
P-N-Si

>  <Preparation_Type>  (342) 
Additive

>  <Synthesis_Level>  (342) 
B

>  <Parent_Tanimoto_r3>  (342) 
0.7623762376237624

>  <Max_Train_Tanimoto_r3>  (342) 
0.7623762376237624

>  <Risk_Flags>  (342) 
DOPO-core substitution route needs confirmation

$$$$
CAND_R2_343 | TDA-carboxamide
     RDKit          2D

 67 70  0  0  0  0  0  0  0  0999 V2000
  -22.4898   -3.2529    0.0000 C   0  0  0  0  0  0  0  0  0  0  0  0
  -21.0803   -3.7659    0.0000 C   0  0  0  0  0  0  0  0  0  0  0  0
  -20.8198   -5.2431    0.0000 O   0  0  0  0  0  0  0  0  0  0  0  0
  -19.4102   -5.7561    0.0000 Si  0  0  0  0  0  4  0  0  0  0  0  0
  -18.0007   -6.2692    0.0000 C   0  0  0  0  0  0  0  0  0  0  0  0
  -16.8516   -5.3050    0.0000 C   0  0  0  0  0  0  0  0  0  0  0  0
  -15.4421   -5.8180    0.0000 C   0  0  0  0  0  0  0  0  0  0  0  0
  -14.2930   -4.8538    0.0000 N   0  0  0  0  0  0  0  0  0  0  0  0
  -12.8835   -5.3669    0.0000 C   0  0  0  0  0  0  0  0  0  0  0  0
  -11.7344   -4.4027    0.0000 C   0  0  0  0  0  0  0  0  0  0  0  0
  -11.9949   -2.9255    0.0000 O   0  0  0  0  0  0  0  0  0  0  0  0
  -10.3249   -4.9157    0.0000 C   0  0  0  0  0  0  0  0  0  0  0  0
   -9.1758   -3.9515    0.0000 N   0  0  0  0  0  0  0  0  0  0  0  0
   -9.4363   -2.4743    0.0000 C   0  0  0  0  0  0  0  0  0  0  0  0
  -10.8458   -1.9613    0.0000 O   0  0  0  0  0  0  0  0  0  0  0  0
   -8.2872   -1.5101    0.0000 N   0  0  0  0  0  0  0  0  0  0  0  0
   -8.5477   -0.0329    0.0000 C   0  0  0  0  0  0  0  0  0  0  0  0
   -7.3986    0.9313    0.0000 C   0  0  0  0  0  0  0  0  0  0  0  0
   -5.9891    0.4182    0.0000 O   0  0  0  0  0  0  0  0  0  0  0  0
   -7.6591    2.4085    0.0000 C   0  0  0  0  0  0  0  0  0  0  0  0
   -6.5100    3.3726    0.0000 N   0  0  0  0  0  0  0  0  0  0  0  0
   -6.7705    4.8499    0.0000 C   0  0  0  0  0  0  0  0  0  0  0  0
   -5.6214    5.8140    0.0000 C   0  0  0  0  0  0  0  0  0  0  0  0
   -5.8819    7.2913    0.0000 C   0  0  0  0  0  0  0  0  0  0  0  0
   -4.7328    8.2554    0.0000 Si  0  0  0  0  0  4  0  0  0  0  0  0
   -3.5838    9.2196    0.0000 O   0  0  0  0  0  0  0  0  0  0  0  0
   -2.1742    8.7066    0.0000 C   0  0  0  0  0  0  0  0  0  0  0  0
   -1.0252    9.6708    0.0000 C   0  0  0  0  0  0  0  0  0  0  0  0
   -5.6970    9.4045    0.0000 O   0  0  0  0  0  0  0  0  0  0  0  0
   -5.1840   10.8140    0.0000 C   0  0  0  0  0  0  0  0  0  0  0  0
   -6.1482   11.9631    0.0000 C   0  0  0  0  0  0  0  0  0  0  0  0
   -3.7687    7.1064    0.0000 O   0  0  0  0  0  0  0  0  0  0  0  0
   -2.2915    7.3668    0.0000 C   0  0  0  0  0  0  0  0  0  0  0  0
   -1.3273    6.2178    0.0000 C   0  0  0  0  0  0  0  0  0  0  0  0
   -6.8777   -2.0232    0.0000 C   0  0  0  0  0  0  0  0  0  0  0  0
   -5.7286   -1.0590    0.0000 O   0  0  0  0  0  0  0  0  0  0  0  0
   -6.6172   -3.5004    0.0000 N   0  0  0  0  0  0  0  0  0  0  0  0
   -5.2077   -4.0134    0.0000 C   0  0  0  0  0  0  0  0  0  0  0  0
   -4.0586   -3.0492    0.0000 C   0  0  0  0  0  0  0  0  0  0  0  0
   -4.3191   -1.5720    0.0000 O   0  0  0  0  0  0  0  0  0  0  0  0
   -2.6491   -3.5623    0.0000 C   0  0  0  0  0  0  0  0  0  0  0  0
   -1.5000   -2.5981    0.0000 P   0  0  0  0  0  0  0  0  0  0  0  0
   -2.6491   -1.6339    0.0000 O   0  0  0  0  0  0  0  0  0  0  0  0
   -0.7500   -3.8971    0.0000 O   0  0  0  0  0  0  0  0  0  0  0  0
    0.7500   -3.8971    0.0000 C   0  0  0  0  0  0  0  0  0  0  0  0
    1.5000   -5.1962    0.0000 C   0  0  0  0  0  0  0  0  0  0  0  0
    3.0000   -5.1962    0.0000 C   0  0  0  0  0  0  0  0  0  0  0  0
    3.7500   -3.8971    0.0000 C   0  0  0  0  0  0  0  0  0  0  0  0
    5.2500   -3.8971    0.0000 C   0  0  0  0  0  0  0  0  0  0  0  0
    6.0000   -5.1962    0.0000 N   0  0  0  0  0  0  0  0  0  0  0  0
    6.0000   -2.5981    0.0000 O   0  0  0  0  0  0  0  0  0  0  0  0
    3.0000   -2.5981    0.0000 C   0  0  0  0  0  0  0  0  0  0  0  0
    1.5000   -2.5981    0.0000 C   0  0  0  0  0  0  0  0  0  0  0  0
    0.7500   -1.2990    0.0000 C   0  0  0  0  0  0  0  0  0  0  0  0
    1.5000    0.0000    0.0000 C   0  0  0  0  0  0  0  0  0  0  0  0
    0.7500    1.2990    0.0000 C   0  0  0  0  0  0  0  0  0  0  0  0
   -0.7500    1.2990    0.0000 C   0  0  0  0  0  0  0  0  0  0  0  0
   -1.5000    0.0000    0.0000 C   0  0  0  0  0  0  0  0  0  0  0  0
   -0.7500   -1.2990    0.0000 C   0  0  0  0  0  0  0  0  0  0  0  0
   -7.7663   -4.4646    0.0000 C   0  0  0  0  0  0  0  0  0  0  0  0
   -7.5058   -5.9418    0.0000 O   0  0  0  0  0  0  0  0  0  0  0  0
  -19.9233   -7.1657    0.0000 O   0  0  0  0  0  0  0  0  0  0  0  0
  -21.4005   -7.4261    0.0000 C   0  0  0  0  0  0  0  0  0  0  0  0
  -21.9135   -8.8357    0.0000 C   0  0  0  0  0  0  0  0  0  0  0  0
  -18.8972   -4.3466    0.0000 O   0  0  0  0  0  0  0  0  0  0  0  0
  -19.8614   -3.1975    0.0000 C   0  0  0  0  0  0  0  0  0  0  0  0
  -19.3484   -1.7880    0.0000 C   0  0  0  0  0  0  0  0  0  0  0  0
  1  2  1  0
  2  3  1  0
  3  4  1  0
  4  5  1  0
  5  6  1  0
  6  7  1  0
  7  8  1  0
  8  9  1  0
  9 10  1  0
 10 11  1  0
 10 12  1  0
 12 13  1  0
 13 14  1  0
 14 15  2  0
 14 16  1  0
 16 17  1  0
 17 18  1  0
 18 19  1  0
 18 20  1  0
 20 21  1  0
 21 22  1  0
 22 23  1  0
 23 24  1  0
 24 25  1  0
 25 26  1  0
 26 27  1  0
 27 28  1  0
 25 29  1  0
 29 30  1  0
 30 31  1  0
 25 32  1  0
 32 33  1  0
 33 34  1  0
 16 35  1  0
 35 36  2  0
 35 37  1  0
 37 38  1  0
 38 39  1  0
 39 40  1  0
 39 41  1  0
 41 42  1  0
 42 43  2  0
 42 44  1  0
 44 45  1  0
 45 46  2  0
 46 47  1  0
 47 48  2  0
 48 49  1  0
 49 50  1  0
 49 51  2  0
 48 52  1  0
 52 53  2  0
 53 54  1  0
 54 55  2  0
 55 56  1  0
 56 57  2  0
 57 58  1  0
 58 59  2  0
 37 60  1  0
 60 61  2  0
  4 62  1  0
 62 63  1  0
 63 64  1  0
  4 65  1  0
 65 66  1  0
 66 67  1  0
 60 13  1  0
 59 42  1  0
 53 45  1  0
 59 54  1  0
M  END
>  <Candidate_ID>  (343) 
CAND_R2_343

>  <Candidate_Name>  (343) 
TDA-carboxamide

>  <Parent_Seed_ID>  (343) 
TRAIN_010

>  <Parent_Name>  (343) 
TDA

>  <Transformation_Code>  (343) 
carboxamide

>  <Design_Family>  (343) 
P-N-Si

>  <Preparation_Type>  (343) 
Additive

>  <Synthesis_Level>  (343) 
B

>  <Parent_Tanimoto_r3>  (343) 
0.7475728155339806

>  <Max_Train_Tanimoto_r3>  (343) 
0.7475728155339806

>  <Risk_Flags>  (343) 
DOPO-core substitution route needs confirmation

$$$$
CAND_R2_344 | TDA-boronic-acid
     RDKit          2D

 67 70  0  0  0  0  0  0  0  0999 V2000
  -22.4898   -3.2529    0.0000 C   0  0  0  0  0  0  0  0  0  0  0  0
  -21.0803   -3.7659    0.0000 C   0  0  0  0  0  0  0  0  0  0  0  0
  -20.8198   -5.2431    0.0000 O   0  0  0  0  0  0  0  0  0  0  0  0
  -19.4102   -5.7561    0.0000 Si  0  0  0  0  0  4  0  0  0  0  0  0
  -18.0007   -6.2692    0.0000 C   0  0  0  0  0  0  0  0  0  0  0  0
  -16.8516   -5.3050    0.0000 C   0  0  0  0  0  0  0  0  0  0  0  0
  -15.4421   -5.8180    0.0000 C   0  0  0  0  0  0  0  0  0  0  0  0
  -14.2930   -4.8538    0.0000 N   0  0  0  0  0  0  0  0  0  0  0  0
  -12.8835   -5.3669    0.0000 C   0  0  0  0  0  0  0  0  0  0  0  0
  -11.7344   -4.4027    0.0000 C   0  0  0  0  0  0  0  0  0  0  0  0
  -11.9949   -2.9255    0.0000 O   0  0  0  0  0  0  0  0  0  0  0  0
  -10.3249   -4.9157    0.0000 C   0  0  0  0  0  0  0  0  0  0  0  0
   -9.1758   -3.9515    0.0000 N   0  0  0  0  0  0  0  0  0  0  0  0
   -9.4363   -2.4743    0.0000 C   0  0  0  0  0  0  0  0  0  0  0  0
  -10.8458   -1.9613    0.0000 O   0  0  0  0  0  0  0  0  0  0  0  0
   -8.2872   -1.5101    0.0000 N   0  0  0  0  0  0  0  0  0  0  0  0
   -8.5477   -0.0329    0.0000 C   0  0  0  0  0  0  0  0  0  0  0  0
   -7.3986    0.9313    0.0000 C   0  0  0  0  0  0  0  0  0  0  0  0
   -5.9891    0.4182    0.0000 O   0  0  0  0  0  0  0  0  0  0  0  0
   -7.6591    2.4085    0.0000 C   0  0  0  0  0  0  0  0  0  0  0  0
   -6.5100    3.3726    0.0000 N   0  0  0  0  0  0  0  0  0  0  0  0
   -6.7705    4.8499    0.0000 C   0  0  0  0  0  0  0  0  0  0  0  0
   -5.6214    5.8140    0.0000 C   0  0  0  0  0  0  0  0  0  0  0  0
   -5.8819    7.2913    0.0000 C   0  0  0  0  0  0  0  0  0  0  0  0
   -4.7328    8.2554    0.0000 Si  0  0  0  0  0  4  0  0  0  0  0  0
   -3.5838    9.2196    0.0000 O   0  0  0  0  0  0  0  0  0  0  0  0
   -2.1742    8.7066    0.0000 C   0  0  0  0  0  0  0  0  0  0  0  0
   -1.0252    9.6708    0.0000 C   0  0  0  0  0  0  0  0  0  0  0  0
   -5.6970    9.4045    0.0000 O   0  0  0  0  0  0  0  0  0  0  0  0
   -5.1840   10.8140    0.0000 C   0  0  0  0  0  0  0  0  0  0  0  0
   -6.1482   11.9631    0.0000 C   0  0  0  0  0  0  0  0  0  0  0  0
   -3.7687    7.1064    0.0000 O   0  0  0  0  0  0  0  0  0  0  0  0
   -2.2915    7.3668    0.0000 C   0  0  0  0  0  0  0  0  0  0  0  0
   -1.3273    6.2178    0.0000 C   0  0  0  0  0  0  0  0  0  0  0  0
   -6.8777   -2.0232    0.0000 C   0  0  0  0  0  0  0  0  0  0  0  0
   -5.7286   -1.0590    0.0000 O   0  0  0  0  0  0  0  0  0  0  0  0
   -6.6172   -3.5004    0.0000 N   0  0  0  0  0  0  0  0  0  0  0  0
   -5.2077   -4.0134    0.0000 C   0  0  0  0  0  0  0  0  0  0  0  0
   -4.0586   -3.0492    0.0000 C   0  0  0  0  0  0  0  0  0  0  0  0
   -4.3191   -1.5720    0.0000 O   0  0  0  0  0  0  0  0  0  0  0  0
   -2.6491   -3.5623    0.0000 C   0  0  0  0  0  0  0  0  0  0  0  0
   -1.5000   -2.5981    0.0000 P   0  0  0  0  0  0  0  0  0  0  0  0
   -2.6491   -1.6339    0.0000 O   0  0  0  0  0  0  0  0  0  0  0  0
   -0.7500   -3.8971    0.0000 O   0  0  0  0  0  0  0  0  0  0  0  0
    0.7500   -3.8971    0.0000 C   0  0  0  0  0  0  0  0  0  0  0  0
    1.5000   -5.1962    0.0000 C   0  0  0  0  0  0  0  0  0  0  0  0
    3.0000   -5.1962    0.0000 C   0  0  0  0  0  0  0  0  0  0  0  0
    3.7500   -3.8971    0.0000 C   0  0  0  0  0  0  0  0  0  0  0  0
    5.2500   -3.8971    0.0000 B   0  0  0  0  0  0  0  0  0  0  0  0
    6.0000   -5.1962    0.0000 O   0  0  0  0  0  0  0  0  0  0  0  0
    6.0000   -2.5981    0.0000 O   0  0  0  0  0  0  0  0  0  0  0  0
    3.0000   -2.5981    0.0000 C   0  0  0  0  0  0  0  0  0  0  0  0
    1.5000   -2.5981    0.0000 C   0  0  0  0  0  0  0  0  0  0  0  0
    0.7500   -1.2990    0.0000 C   0  0  0  0  0  0  0  0  0  0  0  0
    1.5000    0.0000    0.0000 C   0  0  0  0  0  0  0  0  0  0  0  0
    0.7500    1.2990    0.0000 C   0  0  0  0  0  0  0  0  0  0  0  0
   -0.7500    1.2990    0.0000 C   0  0  0  0  0  0  0  0  0  0  0  0
   -1.5000    0.0000    0.0000 C   0  0  0  0  0  0  0  0  0  0  0  0
   -0.7500   -1.2990    0.0000 C   0  0  0  0  0  0  0  0  0  0  0  0
   -7.7663   -4.4646    0.0000 C   0  0  0  0  0  0  0  0  0  0  0  0
   -7.5058   -5.9418    0.0000 O   0  0  0  0  0  0  0  0  0  0  0  0
  -19.9233   -7.1657    0.0000 O   0  0  0  0  0  0  0  0  0  0  0  0
  -21.4005   -7.4261    0.0000 C   0  0  0  0  0  0  0  0  0  0  0  0
  -21.9135   -8.8357    0.0000 C   0  0  0  0  0  0  0  0  0  0  0  0
  -18.8972   -4.3466    0.0000 O   0  0  0  0  0  0  0  0  0  0  0  0
  -19.8614   -3.1975    0.0000 C   0  0  0  0  0  0  0  0  0  0  0  0
  -19.3484   -1.7880    0.0000 C   0  0  0  0  0  0  0  0  0  0  0  0
  1  2  1  0
  2  3  1  0
  3  4  1  0
  4  5  1  0
  5  6  1  0
  6  7  1  0
  7  8  1  0
  8  9  1  0
  9 10  1  0
 10 11  1  0
 10 12  1  0
 12 13  1  0
 13 14  1  0
 14 15  2  0
 14 16  1  0
 16 17  1  0
 17 18  1  0
 18 19  1  0
 18 20  1  0
 20 21  1  0
 21 22  1  0
 22 23  1  0
 23 24  1  0
 24 25  1  0
 25 26  1  0
 26 27  1  0
 27 28  1  0
 25 29  1  0
 29 30  1  0
 30 31  1  0
 25 32  1  0
 32 33  1  0
 33 34  1  0
 16 35  1  0
 35 36  2  0
 35 37  1  0
 37 38  1  0
 38 39  1  0
 39 40  1  0
 39 41  1  0
 41 42  1  0
 42 43  2  0
 42 44  1  0
 44 45  1  0
 45 46  2  0
 46 47  1  0
 47 48  2  0
 48 49  1  0
 49 50  1  0
 49 51  1  0
 48 52  1  0
 52 53  2  0
 53 54  1  0
 54 55  2  0
 55 56  1  0
 56 57  2  0
 57 58  1  0
 58 59  2  0
 37 60  1  0
 60 61  2  0
  4 62  1  0
 62 63  1  0
 63 64  1  0
  4 65  1  0
 65 66  1  0
 66 67  1  0
 60 13  1  0
 59 42  1  0
 53 45  1  0
 59 54  1  0
M  END
>  <Candidate_ID>  (344) 
CAND_R2_344

>  <Candidate_Name>  (344) 
TDA-boronic-acid

>  <Parent_Seed_ID>  (344) 
TRAIN_010

>  <Parent_Name>  (344) 
TDA

>  <Transformation_Code>  (344) 
boronic_acid

>  <Design_Family>  (344) 
P-N-Si-B

>  <Preparation_Type>  (344) 
Additive

>  <Synthesis_Level>  (344) 
B

>  <Parent_Tanimoto_r3>  (344) 
0.77

>  <Max_Train_Tanimoto_r3>  (344) 
0.77

>  <Risk_Flags>  (344) 
DOPO-core substitution route needs confirmation

$$$$
CAND_R2_345 | TDA-pinacol-boronate
     RDKit          2D

 73 77  0  0  0  0  0  0  0  0999 V2000
  -22.4898   -3.2529    0.0000 C   0  0  0  0  0  0  0  0  0  0  0  0
  -21.0803   -3.7659    0.0000 C   0  0  0  0  0  0  0  0  0  0  0  0
  -20.8198   -5.2431    0.0000 O   0  0  0  0  0  0  0  0  0  0  0  0
  -19.4102   -5.7561    0.0000 Si  0  0  0  0  0  4  0  0  0  0  0  0
  -18.0007   -6.2692    0.0000 C   0  0  0  0  0  0  0  0  0  0  0  0
  -16.8516   -5.3050    0.0000 C   0  0  0  0  0  0  0  0  0  0  0  0
  -15.4421   -5.8180    0.0000 C   0  0  0  0  0  0  0  0  0  0  0  0
  -14.2930   -4.8538    0.0000 N   0  0  0  0  0  0  0  0  0  0  0  0
  -12.8835   -5.3669    0.0000 C   0  0  0  0  0  0  0  0  0  0  0  0
  -11.7344   -4.4027    0.0000 C   0  0  0  0  0  0  0  0  0  0  0  0
  -11.9949   -2.9255    0.0000 O   0  0  0  0  0  0  0  0  0  0  0  0
  -10.3249   -4.9157    0.0000 C   0  0  0  0  0  0  0  0  0  0  0  0
   -9.1758   -3.9515    0.0000 N   0  0  0  0  0  0  0  0  0  0  0  0
   -9.4363   -2.4743    0.0000 C   0  0  0  0  0  0  0  0  0  0  0  0
  -10.8458   -1.9613    0.0000 O   0  0  0  0  0  0  0  0  0  0  0  0
   -8.2872   -1.5101    0.0000 N   0  0  0  0  0  0  0  0  0  0  0  0
   -8.5477   -0.0329    0.0000 C   0  0  0  0  0  0  0  0  0  0  0  0
   -7.3986    0.9313    0.0000 C   0  0  0  0  0  0  0  0  0  0  0  0
   -5.9891    0.4182    0.0000 O   0  0  0  0  0  0  0  0  0  0  0  0
   -7.6591    2.4085    0.0000 C   0  0  0  0  0  0  0  0  0  0  0  0
   -6.5100    3.3726    0.0000 N   0  0  0  0  0  0  0  0  0  0  0  0
   -6.7705    4.8499    0.0000 C   0  0  0  0  0  0  0  0  0  0  0  0
   -5.6214    5.8140    0.0000 C   0  0  0  0  0  0  0  0  0  0  0  0
   -5.8819    7.2913    0.0000 C   0  0  0  0  0  0  0  0  0  0  0  0
   -4.7328    8.2554    0.0000 Si  0  0  0  0  0  4  0  0  0  0  0  0
   -3.5838    9.2196    0.0000 O   0  0  0  0  0  0  0  0  0  0  0  0
   -2.1742    8.7066    0.0000 C   0  0  0  0  0  0  0  0  0  0  0  0
   -1.0252    9.6708    0.0000 C   0  0  0  0  0  0  0  0  0  0  0  0
   -5.6970    9.4045    0.0000 O   0  0  0  0  0  0  0  0  0  0  0  0
   -5.1840   10.8140    0.0000 C   0  0  0  0  0  0  0  0  0  0  0  0
   -6.1482   11.9631    0.0000 C   0  0  0  0  0  0  0  0  0  0  0  0
   -3.7687    7.1064    0.0000 O   0  0  0  0  0  0  0  0  0  0  0  0
   -2.2915    7.3668    0.0000 C   0  0  0  0  0  0  0  0  0  0  0  0
   -1.3273    6.2178    0.0000 C   0  0  0  0  0  0  0  0  0  0  0  0
   -6.8777   -2.0232    0.0000 C   0  0  0  0  0  0  0  0  0  0  0  0
   -5.7286   -1.0590    0.0000 O   0  0  0  0  0  0  0  0  0  0  0  0
   -6.6172   -3.5004    0.0000 N   0  0  0  0  0  0  0  0  0  0  0  0
   -5.2077   -4.0134    0.0000 C   0  0  0  0  0  0  0  0  0  0  0  0
   -4.0586   -3.0492    0.0000 C   0  0  0  0  0  0  0  0  0  0  0  0
   -4.3191   -1.5720    0.0000 O   0  0  0  0  0  0  0  0  0  0  0  0
   -2.6491   -3.5623    0.0000 C   0  0  0  0  0  0  0  0  0  0  0  0
   -1.5000   -2.5981    0.0000 P   0  0  0  0  0  0  0  0  0  0  0  0
   -2.6491   -1.6339    0.0000 O   0  0  0  0  0  0  0  0  0  0  0  0
   -0.7500   -3.8971    0.0000 O   0  0  0  0  0  0  0  0  0  0  0  0
    0.7500   -3.8971    0.0000 C   0  0  0  0  0  0  0  0  0  0  0  0
    1.5000   -5.1962    0.0000 C   0  0  0  0  0  0  0  0  0  0  0  0
    3.0000   -5.1962    0.0000 C   0  0  0  0  0  0  0  0  0  0  0  0
    3.7500   -3.8971    0.0000 C   0  0  0  0  0  0  0  0  0  0  0  0
    5.2500   -3.8971    0.0000 B   0  0  0  0  0  0  0  0  0  0  0  0
    6.1317   -2.6836    0.0000 O   0  0  0  0  0  0  0  0  0  0  0  0
    7.5583   -3.1471    0.0000 C   0  0  0  0  0  0  0  0  0  0  0  0
    7.8701   -1.6799    0.0000 C   0  0  0  0  0  0  0  0  0  0  0  0
    9.0500   -3.3039    0.0000 C   0  0  0  0  0  0  0  0  0  0  0  0
    7.5583   -4.6471    0.0000 C   0  0  0  0  0  0  0  0  0  0  0  0
    9.0500   -4.4903    0.0000 C   0  0  0  0  0  0  0  0  0  0  0  0
    7.8701   -6.1143    0.0000 C   0  0  0  0  0  0  0  0  0  0  0  0
    6.1317   -5.1106    0.0000 O   0  0  0  0  0  0  0  0  0  0  0  0
    3.0000   -2.5981    0.0000 C   0  0  0  0  0  0  0  0  0  0  0  0
    1.5000   -2.5981    0.0000 C   0  0  0  0  0  0  0  0  0  0  0  0
    0.7500   -1.2990    0.0000 C   0  0  0  0  0  0  0  0  0  0  0  0
    1.5000    0.0000    0.0000 C   0  0  0  0  0  0  0  0  0  0  0  0
    0.7500    1.2990    0.0000 C   0  0  0  0  0  0  0  0  0  0  0  0
   -0.7500    1.2990    0.0000 C   0  0  0  0  0  0  0  0  0  0  0  0
   -1.5000    0.0000    0.0000 C   0  0  0  0  0  0  0  0  0  0  0  0
   -0.7500   -1.2990    0.0000 C   0  0  0  0  0  0  0  0  0  0  0  0
   -7.7663   -4.4646    0.0000 C   0  0  0  0  0  0  0  0  0  0  0  0
   -7.5058   -5.9418    0.0000 O   0  0  0  0  0  0  0  0  0  0  0  0
  -19.9233   -7.1657    0.0000 O   0  0  0  0  0  0  0  0  0  0  0  0
  -21.4005   -7.4261    0.0000 C   0  0  0  0  0  0  0  0  0  0  0  0
  -21.9135   -8.8357    0.0000 C   0  0  0  0  0  0  0  0  0  0  0  0
  -18.8972   -4.3466    0.0000 O   0  0  0  0  0  0  0  0  0  0  0  0
  -19.8614   -3.1975    0.0000 C   0  0  0  0  0  0  0  0  0  0  0  0
  -19.3484   -1.7880    0.0000 C   0  0  0  0  0  0  0  0  0  0  0  0
  1  2  1  0
  2  3  1  0
  3  4  1  0
  4  5  1  0
  5  6  1  0
  6  7  1  0
  7  8  1  0
  8  9  1  0
  9 10  1  0
 10 11  1  0
 10 12  1  0
 12 13  1  0
 13 14  1  0
 14 15  2  0
 14 16  1  0
 16 17  1  0
 17 18  1  0
 18 19  1  0
 18 20  1  0
 20 21  1  0
 21 22  1  0
 22 23  1  0
 23 24  1  0
 24 25  1  0
 25 26  1  0
 26 27  1  0
 27 28  1  0
 25 29  1  0
 29 30  1  0
 30 31  1  0
 25 32  1  0
 32 33  1  0
 33 34  1  0
 16 35  1  0
 35 36  2  0
 35 37  1  0
 37 38  1  0
 38 39  1  0
 39 40  1  0
 39 41  1  0
 41 42  1  0
 42 43  2  0
 42 44  1  0
 44 45  1  0
 45 46  2  0
 46 47  1  0
 47 48  2  0
 48 49  1  0
 49 50  1  0
 50 51  1  0
 51 52  1  0
 51 53  1  0
 51 54  1  0
 54 55  1  0
 54 56  1  0
 54 57  1  0
 48 58  1  0
 58 59  2  0
 59 60  1  0
 60 61  2  0
 61 62  1  0
 62 63  2  0
 63 64  1  0
 64 65  2  0
 37 66  1  0
 66 67  2  0
  4 68  1  0
 68 69  1  0
 69 70  1  0
  4 71  1  0
 71 72  1  0
 72 73  1  0
 66 13  1  0
 65 42  1  0
 59 45  1  0
 65 60  1  0
 57 49  1  0
M  END
>  <Candidate_ID>  (345) 
CAND_R2_345

>  <Candidate_Name>  (345) 
TDA-pinacol-boronate

>  <Parent_Seed_ID>  (345) 
TRAIN_010

>  <Parent_Name>  (345) 
TDA

>  <Transformation_Code>  (345) 
pinacol_boronate

>  <Design_Family>  (345) 
P-N-Si-B

>  <Preparation_Type>  (345) 
Additive

>  <Synthesis_Level>  (345) 
B

>  <Parent_Tanimoto_r3>  (345) 
0.7

>  <Max_Train_Tanimoto_r3>  (345) 
0.7

>  <Risk_Flags>  (345) 
DOPO-core substitution route needs confirmation

$$$$
CAND_R2_346 | TDA-trimethoxysilyl
     RDKit          2D

 71 74  0  0  0  0  0  0  0  0999 V2000
  -22.4898   -3.2529    0.0000 C   0  0  0  0  0  0  0  0  0  0  0  0
  -21.0803   -3.7659    0.0000 C   0  0  0  0  0  0  0  0  0  0  0  0
  -20.8198   -5.2431    0.0000 O   0  0  0  0  0  0  0  0  0  0  0  0
  -19.4102   -5.7561    0.0000 Si  0  0  0  0  0  4  0  0  0  0  0  0
  -18.0007   -6.2692    0.0000 C   0  0  0  0  0  0  0  0  0  0  0  0
  -16.8516   -5.3050    0.0000 C   0  0  0  0  0  0  0  0  0  0  0  0
  -15.4421   -5.8180    0.0000 C   0  0  0  0  0  0  0  0  0  0  0  0
  -14.2930   -4.8538    0.0000 N   0  0  0  0  0  0  0  0  0  0  0  0
  -12.8835   -5.3669    0.0000 C   0  0  0  0  0  0  0  0  0  0  0  0
  -11.7344   -4.4027    0.0000 C   0  0  0  0  0  0  0  0  0  0  0  0
  -11.9949   -2.9255    0.0000 O   0  0  0  0  0  0  0  0  0  0  0  0
  -10.3249   -4.9157    0.0000 C   0  0  0  0  0  0  0  0  0  0  0  0
   -9.1758   -3.9515    0.0000 N   0  0  0  0  0  0  0  0  0  0  0  0
   -9.4363   -2.4743    0.0000 C   0  0  0  0  0  0  0  0  0  0  0  0
  -10.8458   -1.9613    0.0000 O   0  0  0  0  0  0  0  0  0  0  0  0
   -8.2872   -1.5101    0.0000 N   0  0  0  0  0  0  0  0  0  0  0  0
   -8.5477   -0.0329    0.0000 C   0  0  0  0  0  0  0  0  0  0  0  0
   -7.3986    0.9313    0.0000 C   0  0  0  0  0  0  0  0  0  0  0  0
   -5.9891    0.4182    0.0000 O   0  0  0  0  0  0  0  0  0  0  0  0
   -7.6591    2.4085    0.0000 C   0  0  0  0  0  0  0  0  0  0  0  0
   -6.5100    3.3726    0.0000 N   0  0  0  0  0  0  0  0  0  0  0  0
   -6.7705    4.8499    0.0000 C   0  0  0  0  0  0  0  0  0  0  0  0
   -5.6214    5.8140    0.0000 C   0  0  0  0  0  0  0  0  0  0  0  0
   -5.8819    7.2913    0.0000 C   0  0  0  0  0  0  0  0  0  0  0  0
   -4.7328    8.2554    0.0000 Si  0  0  0  0  0  4  0  0  0  0  0  0
   -3.5838    9.2196    0.0000 O   0  0  0  0  0  0  0  0  0  0  0  0
   -2.1742    8.7066    0.0000 C   0  0  0  0  0  0  0  0  0  0  0  0
   -1.0252    9.6708    0.0000 C   0  0  0  0  0  0  0  0  0  0  0  0
   -5.6970    9.4045    0.0000 O   0  0  0  0  0  0  0  0  0  0  0  0
   -5.1840   10.8140    0.0000 C   0  0  0  0  0  0  0  0  0  0  0  0
   -6.1482   11.9631    0.0000 C   0  0  0  0  0  0  0  0  0  0  0  0
   -3.7687    7.1064    0.0000 O   0  0  0  0  0  0  0  0  0  0  0  0
   -2.2915    7.3668    0.0000 C   0  0  0  0  0  0  0  0  0  0  0  0
   -1.3273    6.2178    0.0000 C   0  0  0  0  0  0  0  0  0  0  0  0
   -6.8777   -2.0232    0.0000 C   0  0  0  0  0  0  0  0  0  0  0  0
   -5.7286   -1.0590    0.0000 O   0  0  0  0  0  0  0  0  0  0  0  0
   -6.6172   -3.5004    0.0000 N   0  0  0  0  0  0  0  0  0  0  0  0
   -5.2077   -4.0134    0.0000 C   0  0  0  0  0  0  0  0  0  0  0  0
   -4.0586   -3.0492    0.0000 C   0  0  0  0  0  0  0  0  0  0  0  0
   -4.3191   -1.5720    0.0000 O   0  0  0  0  0  0  0  0  0  0  0  0
   -2.6491   -3.5623    0.0000 C   0  0  0  0  0  0  0  0  0  0  0  0
   -1.5000   -2.5981    0.0000 P   0  0  0  0  0  0  0  0  0  0  0  0
   -2.6491   -1.6339    0.0000 O   0  0  0  0  0  0  0  0  0  0  0  0
   -0.7500   -3.8971    0.0000 O   0  0  0  0  0  0  0  0  0  0  0  0
    0.7500   -3.8971    0.0000 C   0  0  0  0  0  0  0  0  0  0  0  0
    1.5000   -5.1962    0.0000 C   0  0  0  0  0  0  0  0  0  0  0  0
    3.0000   -5.1962    0.0000 C   0  0  0  0  0  0  0  0  0  0  0  0
    3.7500   -3.8971    0.0000 C   0  0  0  0  0  0  0  0  0  0  0  0
    5.2500   -3.8971    0.0000 Si  0  0  0  0  0  4  0  0  0  0  0  0
    6.7500   -3.8971    0.0000 O   0  0  0  0  0  0  0  0  0  0  0  0
    7.5000   -2.5981    0.0000 C   0  0  0  0  0  0  0  0  0  0  0  0
    5.2500   -5.3971    0.0000 O   0  0  0  0  0  0  0  0  0  0  0  0
    6.5490   -6.1471    0.0000 C   0  0  0  0  0  0  0  0  0  0  0  0
    5.2500   -2.3971    0.0000 O   0  0  0  0  0  0  0  0  0  0  0  0
    6.5490   -1.6471    0.0000 C   0  0  0  0  0  0  0  0  0  0  0  0
    3.0000   -2.5981    0.0000 C   0  0  0  0  0  0  0  0  0  0  0  0
    1.5000   -2.5981    0.0000 C   0  0  0  0  0  0  0  0  0  0  0  0
    0.7500   -1.2990    0.0000 C   0  0  0  0  0  0  0  0  0  0  0  0
    1.5000    0.0000    0.0000 C   0  0  0  0  0  0  0  0  0  0  0  0
    0.7500    1.2990    0.0000 C   0  0  0  0  0  0  0  0  0  0  0  0
   -0.7500    1.2990    0.0000 C   0  0  0  0  0  0  0  0  0  0  0  0
   -1.5000    0.0000    0.0000 C   0  0  0  0  0  0  0  0  0  0  0  0
   -0.7500   -1.2990    0.0000 C   0  0  0  0  0  0  0  0  0  0  0  0
   -7.7663   -4.4646    0.0000 C   0  0  0  0  0  0  0  0  0  0  0  0
   -7.5058   -5.9418    0.0000 O   0  0  0  0  0  0  0  0  0  0  0  0
  -19.9233   -7.1657    0.0000 O   0  0  0  0  0  0  0  0  0  0  0  0
  -21.4005   -7.4261    0.0000 C   0  0  0  0  0  0  0  0  0  0  0  0
  -21.9135   -8.8357    0.0000 C   0  0  0  0  0  0  0  0  0  0  0  0
  -18.8972   -4.3466    0.0000 O   0  0  0  0  0  0  0  0  0  0  0  0
  -19.8614   -3.1975    0.0000 C   0  0  0  0  0  0  0  0  0  0  0  0
  -19.3484   -1.7880    0.0000 C   0  0  0  0  0  0  0  0  0  0  0  0
  1  2  1  0
  2  3  1  0
  3  4  1  0
  4  5  1  0
  5  6  1  0
  6  7  1  0
  7  8  1  0
  8  9  1  0
  9 10  1  0
 10 11  1  0
 10 12  1  0
 12 13  1  0
 13 14  1  0
 14 15  2  0
 14 16  1  0
 16 17  1  0
 17 18  1  0
 18 19  1  0
 18 20  1  0
 20 21  1  0
 21 22  1  0
 22 23  1  0
 23 24  1  0
 24 25  1  0
 25 26  1  0
 26 27  1  0
 27 28  1  0
 25 29  1  0
 29 30  1  0
 30 31  1  0
 25 32  1  0
 32 33  1  0
 33 34  1  0
 16 35  1  0
 35 36  2  0
 35 37  1  0
 37 38  1  0
 38 39  1  0
 39 40  1  0
 39 41  1  0
 41 42  1  0
 42 43  2  0
 42 44  1  0
 44 45  1  0
 45 46  2  0
 46 47  1  0
 47 48  2  0
 48 49  1  0
 49 50  1  0
 50 51  1  0
 49 52  1  0
 52 53  1  0
 49 54  1  0
 54 55  1  0
 48 56  1  0
 56 57  2  0
 57 58  1  0
 58 59  2  0
 59 60  1  0
 60 61  2  0
 61 62  1  0
 62 63  2  0
 37 64  1  0
 64 65  2  0
  4 66  1  0
 66 67  1  0
 67 68  1  0
  4 69  1  0
 69 70  1  0
 70 71  1  0
 64 13  1  0
 63 42  1  0
 57 45  1  0
 63 58  1  0
M  END
>  <Candidate_ID>  (346) 
CAND_R2_346

>  <Candidate_Name>  (346) 
TDA-trimethoxysilyl

>  <Parent_Seed_ID>  (346) 
TRAIN_010

>  <Parent_Name>  (346) 
TDA

>  <Transformation_Code>  (346) 
trimethoxysilyl

>  <Design_Family>  (346) 
P-N-Si

>  <Preparation_Type>  (346) 
Additive + Secondary Crosslinking

>  <Synthesis_Level>  (346) 
B

>  <Parent_Tanimoto_r3>  (346) 
0.7475728155339806

>  <Max_Train_Tanimoto_r3>  (346) 
0.7475728155339806

>  <Risk_Flags>  (346) 
DOPO-core substitution route needs confirmation

$$$$
CAND_R2_347 | TDA-triethoxysilyl
     RDKit          2D

 74 77  0  0  0  0  0  0  0  0999 V2000
  -22.4898   -3.2529    0.0000 C   0  0  0  0  0  0  0  0  0  0  0  0
  -21.0803   -3.7659    0.0000 C   0  0  0  0  0  0  0  0  0  0  0  0
  -20.8198   -5.2431    0.0000 O   0  0  0  0  0  0  0  0  0  0  0  0
  -19.4102   -5.7561    0.0000 Si  0  0  0  0  0  4  0  0  0  0  0  0
  -18.0007   -6.2692    0.0000 C   0  0  0  0  0  0  0  0  0  0  0  0
  -16.8516   -5.3050    0.0000 C   0  0  0  0  0  0  0  0  0  0  0  0
  -15.4421   -5.8180    0.0000 C   0  0  0  0  0  0  0  0  0  0  0  0
  -14.2930   -4.8538    0.0000 N   0  0  0  0  0  0  0  0  0  0  0  0
  -12.8835   -5.3669    0.0000 C   0  0  0  0  0  0  0  0  0  0  0  0
  -11.7344   -4.4027    0.0000 C   0  0  0  0  0  0  0  0  0  0  0  0
  -11.9949   -2.9255    0.0000 O   0  0  0  0  0  0  0  0  0  0  0  0
  -10.3249   -4.9157    0.0000 C   0  0  0  0  0  0  0  0  0  0  0  0
   -9.1758   -3.9515    0.0000 N   0  0  0  0  0  0  0  0  0  0  0  0
   -9.4363   -2.4743    0.0000 C   0  0  0  0  0  0  0  0  0  0  0  0
  -10.8458   -1.9613    0.0000 O   0  0  0  0  0  0  0  0  0  0  0  0
   -8.2872   -1.5101    0.0000 N   0  0  0  0  0  0  0  0  0  0  0  0
   -8.5477   -0.0329    0.0000 C   0  0  0  0  0  0  0  0  0  0  0  0
   -7.3986    0.9313    0.0000 C   0  0  0  0  0  0  0  0  0  0  0  0
   -5.9891    0.4182    0.0000 O   0  0  0  0  0  0  0  0  0  0  0  0
   -7.6591    2.4085    0.0000 C   0  0  0  0  0  0  0  0  0  0  0  0
   -6.5100    3.3726    0.0000 N   0  0  0  0  0  0  0  0  0  0  0  0
   -6.7705    4.8499    0.0000 C   0  0  0  0  0  0  0  0  0  0  0  0
   -5.6214    5.8140    0.0000 C   0  0  0  0  0  0  0  0  0  0  0  0
   -5.8819    7.2913    0.0000 C   0  0  0  0  0  0  0  0  0  0  0  0
   -4.7328    8.2554    0.0000 Si  0  0  0  0  0  4  0  0  0  0  0  0
   -3.5838    9.2196    0.0000 O   0  0  0  0  0  0  0  0  0  0  0  0
   -2.1742    8.7066    0.0000 C   0  0  0  0  0  0  0  0  0  0  0  0
   -1.0252    9.6708    0.0000 C   0  0  0  0  0  0  0  0  0  0  0  0
   -5.6970    9.4045    0.0000 O   0  0  0  0  0  0  0  0  0  0  0  0
   -5.1840   10.8140    0.0000 C   0  0  0  0  0  0  0  0  0  0  0  0
   -6.1482   11.9631    0.0000 C   0  0  0  0  0  0  0  0  0  0  0  0
   -3.7687    7.1064    0.0000 O   0  0  0  0  0  0  0  0  0  0  0  0
   -2.2915    7.3668    0.0000 C   0  0  0  0  0  0  0  0  0  0  0  0
   -1.3273    6.2178    0.0000 C   0  0  0  0  0  0  0  0  0  0  0  0
   -6.8777   -2.0232    0.0000 C   0  0  0  0  0  0  0  0  0  0  0  0
   -5.7286   -1.0590    0.0000 O   0  0  0  0  0  0  0  0  0  0  0  0
   -6.6172   -3.5004    0.0000 N   0  0  0  0  0  0  0  0  0  0  0  0
   -5.2077   -4.0134    0.0000 C   0  0  0  0  0  0  0  0  0  0  0  0
   -4.0586   -3.0492    0.0000 C   0  0  0  0  0  0  0  0  0  0  0  0
   -4.3191   -1.5720    0.0000 O   0  0  0  0  0  0  0  0  0  0  0  0
   -2.6491   -3.5623    0.0000 C   0  0  0  0  0  0  0  0  0  0  0  0
   -1.5000   -2.5981    0.0000 P   0  0  0  0  0  0  0  0  0  0  0  0
   -2.6491   -1.6339    0.0000 O   0  0  0  0  0  0  0  0  0  0  0  0
   -0.7500   -3.8971    0.0000 O   0  0  0  0  0  0  0  0  0  0  0  0
    0.7500   -3.8971    0.0000 C   0  0  0  0  0  0  0  0  0  0  0  0
    1.5000   -5.1962    0.0000 C   0  0  0  0  0  0  0  0  0  0  0  0
    3.0000   -5.1962    0.0000 C   0  0  0  0  0  0  0  0  0  0  0  0
    3.7500   -3.8971    0.0000 C   0  0  0  0  0  0  0  0  0  0  0  0
    5.2500   -3.8971    0.0000 Si  0  0  0  0  0  4  0  0  0  0  0  0
    6.7500   -3.8971    0.0000 O   0  0  0  0  0  0  0  0  0  0  0  0
    7.5000   -2.5981    0.0000 C   0  0  0  0  0  0  0  0  0  0  0  0
    9.0000   -2.5981    0.0000 C   0  0  0  0  0  0  0  0  0  0  0  0
    5.2500   -5.3971    0.0000 O   0  0  0  0  0  0  0  0  0  0  0  0
    6.5490   -6.1471    0.0000 C   0  0  0  0  0  0  0  0  0  0  0  0
    6.5490   -7.6471    0.0000 C   0  0  0  0  0  0  0  0  0  0  0  0
    5.2500   -2.3971    0.0000 O   0  0  0  0  0  0  0  0  0  0  0  0
    6.5490   -1.6471    0.0000 C   0  0  0  0  0  0  0  0  0  0  0  0
    6.5490   -0.1471    0.0000 C   0  0  0  0  0  0  0  0  0  0  0  0
    3.0000   -2.5981    0.0000 C   0  0  0  0  0  0  0  0  0  0  0  0
    1.5000   -2.5981    0.0000 C   0  0  0  0  0  0  0  0  0  0  0  0
    0.7500   -1.2990    0.0000 C   0  0  0  0  0  0  0  0  0  0  0  0
    1.5000    0.0000    0.0000 C   0  0  0  0  0  0  0  0  0  0  0  0
    0.7500    1.2990    0.0000 C   0  0  0  0  0  0  0  0  0  0  0  0
   -0.7500    1.2990    0.0000 C   0  0  0  0  0  0  0  0  0  0  0  0
   -1.5000    0.0000    0.0000 C   0  0  0  0  0  0  0  0  0  0  0  0
   -0.7500   -1.2990    0.0000 C   0  0  0  0  0  0  0  0  0  0  0  0
   -7.7663   -4.4646    0.0000 C   0  0  0  0  0  0  0  0  0  0  0  0
   -7.5058   -5.9418    0.0000 O   0  0  0  0  0  0  0  0  0  0  0  0
  -19.9233   -7.1657    0.0000 O   0  0  0  0  0  0  0  0  0  0  0  0
  -21.4005   -7.4261    0.0000 C   0  0  0  0  0  0  0  0  0  0  0  0
  -21.9135   -8.8357    0.0000 C   0  0  0  0  0  0  0  0  0  0  0  0
  -18.8972   -4.3466    0.0000 O   0  0  0  0  0  0  0  0  0  0  0  0
  -19.8614   -3.1975    0.0000 C   0  0  0  0  0  0  0  0  0  0  0  0
  -19.3484   -1.7880    0.0000 C   0  0  0  0  0  0  0  0  0  0  0  0
  1  2  1  0
  2  3  1  0
  3  4  1  0
  4  5  1  0
  5  6  1  0
  6  7  1  0
  7  8  1  0
  8  9  1  0
  9 10  1  0
 10 11  1  0
 10 12  1  0
 12 13  1  0
 13 14  1  0
 14 15  2  0
 14 16  1  0
 16 17  1  0
 17 18  1  0
 18 19  1  0
 18 20  1  0
 20 21  1  0
 21 22  1  0
 22 23  1  0
 23 24  1  0
 24 25  1  0
 25 26  1  0
 26 27  1  0
 27 28  1  0
 25 29  1  0
 29 30  1  0
 30 31  1  0
 25 32  1  0
 32 33  1  0
 33 34  1  0
 16 35  1  0
 35 36  2  0
 35 37  1  0
 37 38  1  0
 38 39  1  0
 39 40  1  0
 39 41  1  0
 41 42  1  0
 42 43  2  0
 42 44  1  0
 44 45  1  0
 45 46  2  0
 46 47  1  0
 47 48  2  0
 48 49  1  0
 49 50  1  0
 50 51  1  0
 51 52  1  0
 49 53  1  0
 53 54  1  0
 54 55  1  0
 49 56  1  0
 56 57  1  0
 57 58  1  0
 48 59  1  0
 59 60  2  0
 60 61  1  0
 61 62  2  0
 62 63  1  0
 63 64  2  0
 64 65  1  0
 65 66  2  0
 37 67  1  0
 67 68  2  0
  4 69  1  0
 69 70  1  0
 70 71  1  0
  4 72  1  0
 72 73  1  0
 73 74  1  0
 67 13  1  0
 66 42  1  0
 60 45  1  0
 66 61  1  0
M  END
>  <Candidate_ID>  (347) 
CAND_R2_347

>  <Candidate_Name>  (347) 
TDA-triethoxysilyl

>  <Parent_Seed_ID>  (347) 
TRAIN_010

>  <Parent_Name>  (347) 
TDA

>  <Transformation_Code>  (347) 
triethoxysilyl

>  <Design_Family>  (347) 
P-N-Si

>  <Preparation_Type>  (347) 
Additive + Secondary Crosslinking

>  <Synthesis_Level>  (347) 
B

>  <Parent_Tanimoto_r3>  (347) 
0.7549019607843137

>  <Max_Train_Tanimoto_r3>  (347) 
0.7549019607843137

>  <Risk_Flags>  (347) 
DOPO-core substitution route needs confirmation

$$$$
CAND_R2_348 | TDA-disiloxane
     RDKit          2D

 72 75  0  0  0  0  0  0  0  0999 V2000
  -22.4898   -3.2529    0.0000 C   0  0  0  0  0  0  0  0  0  0  0  0
  -21.0803   -3.7659    0.0000 C   0  0  0  0  0  0  0  0  0  0  0  0
  -20.8198   -5.2431    0.0000 O   0  0  0  0  0  0  0  0  0  0  0  0
  -19.4102   -5.7561    0.0000 Si  0  0  0  0  0  4  0  0  0  0  0  0
  -18.0007   -6.2692    0.0000 C   0  0  0  0  0  0  0  0  0  0  0  0
  -16.8516   -5.3050    0.0000 C   0  0  0  0  0  0  0  0  0  0  0  0
  -15.4421   -5.8180    0.0000 C   0  0  0  0  0  0  0  0  0  0  0  0
  -14.2930   -4.8538    0.0000 N   0  0  0  0  0  0  0  0  0  0  0  0
  -12.8835   -5.3669    0.0000 C   0  0  0  0  0  0  0  0  0  0  0  0
  -11.7344   -4.4027    0.0000 C   0  0  0  0  0  0  0  0  0  0  0  0
  -11.9949   -2.9255    0.0000 O   0  0  0  0  0  0  0  0  0  0  0  0
  -10.3249   -4.9157    0.0000 C   0  0  0  0  0  0  0  0  0  0  0  0
   -9.1758   -3.9515    0.0000 N   0  0  0  0  0  0  0  0  0  0  0  0
   -9.4363   -2.4743    0.0000 C   0  0  0  0  0  0  0  0  0  0  0  0
  -10.8458   -1.9613    0.0000 O   0  0  0  0  0  0  0  0  0  0  0  0
   -8.2872   -1.5101    0.0000 N   0  0  0  0  0  0  0  0  0  0  0  0
   -8.5477   -0.0329    0.0000 C   0  0  0  0  0  0  0  0  0  0  0  0
   -7.3986    0.9313    0.0000 C   0  0  0  0  0  0  0  0  0  0  0  0
   -5.9891    0.4182    0.0000 O   0  0  0  0  0  0  0  0  0  0  0  0
   -7.6591    2.4085    0.0000 C   0  0  0  0  0  0  0  0  0  0  0  0
   -6.5100    3.3726    0.0000 N   0  0  0  0  0  0  0  0  0  0  0  0
   -6.7705    4.8499    0.0000 C   0  0  0  0  0  0  0  0  0  0  0  0
   -5.6214    5.8140    0.0000 C   0  0  0  0  0  0  0  0  0  0  0  0
   -5.8819    7.2913    0.0000 C   0  0  0  0  0  0  0  0  0  0  0  0
   -4.7328    8.2554    0.0000 Si  0  0  0  0  0  4  0  0  0  0  0  0
   -3.5838    9.2196    0.0000 O   0  0  0  0  0  0  0  0  0  0  0  0
   -2.1742    8.7066    0.0000 C   0  0  0  0  0  0  0  0  0  0  0  0
   -1.0252    9.6708    0.0000 C   0  0  0  0  0  0  0  0  0  0  0  0
   -5.6970    9.4045    0.0000 O   0  0  0  0  0  0  0  0  0  0  0  0
   -5.1840   10.8140    0.0000 C   0  0  0  0  0  0  0  0  0  0  0  0
   -6.1482   11.9631    0.0000 C   0  0  0  0  0  0  0  0  0  0  0  0
   -3.7687    7.1064    0.0000 O   0  0  0  0  0  0  0  0  0  0  0  0
   -2.2915    7.3668    0.0000 C   0  0  0  0  0  0  0  0  0  0  0  0
   -1.3273    6.2178    0.0000 C   0  0  0  0  0  0  0  0  0  0  0  0
   -6.8777   -2.0232    0.0000 C   0  0  0  0  0  0  0  0  0  0  0  0
   -5.7286   -1.0590    0.0000 O   0  0  0  0  0  0  0  0  0  0  0  0
   -6.6172   -3.5004    0.0000 N   0  0  0  0  0  0  0  0  0  0  0  0
   -5.2077   -4.0134    0.0000 C   0  0  0  0  0  0  0  0  0  0  0  0
   -4.0586   -3.0492    0.0000 C   0  0  0  0  0  0  0  0  0  0  0  0
   -4.3191   -1.5720    0.0000 O   0  0  0  0  0  0  0  0  0  0  0  0
   -2.6491   -3.5623    0.0000 C   0  0  0  0  0  0  0  0  0  0  0  0
   -1.5000   -2.5981    0.0000 P   0  0  0  0  0  0  0  0  0  0  0  0
   -2.6491   -1.6339    0.0000 O   0  0  0  0  0  0  0  0  0  0  0  0
   -0.7500   -3.8971    0.0000 O   0  0  0  0  0  0  0  0  0  0  0  0
    0.7500   -3.8971    0.0000 C   0  0  0  0  0  0  0  0  0  0  0  0
    1.5000   -5.1962    0.0000 C   0  0  0  0  0  0  0  0  0  0  0  0
    3.0000   -5.1962    0.0000 C   0  0  0  0  0  0  0  0  0  0  0  0
    3.7500   -3.8971    0.0000 C   0  0  0  0  0  0  0  0  0  0  0  0
    5.2500   -3.8971    0.0000 Si  0  0  0  0  0  4  0  0  0  0  0  0
    5.2500   -2.3971    0.0000 C   0  0  0  0  0  0  0  0  0  0  0  0
    5.2500   -5.3971    0.0000 C   0  0  0  0  0  0  0  0  0  0  0  0
    6.7500   -3.8971    0.0000 O   0  0  0  0  0  0  0  0  0  0  0  0
    7.5000   -2.5981    0.0000 Si  0  0  0  0  0  4  0  0  0  0  0  0
    8.7990   -3.3481    0.0000 C   0  0  0  0  0  0  0  0  0  0  0  0
    6.2010   -1.8481    0.0000 C   0  0  0  0  0  0  0  0  0  0  0  0
    8.2500   -1.2990    0.0000 C   0  0  0  0  0  0  0  0  0  0  0  0
    3.0000   -2.5981    0.0000 C   0  0  0  0  0  0  0  0  0  0  0  0
    1.5000   -2.5981    0.0000 C   0  0  0  0  0  0  0  0  0  0  0  0
    0.7500   -1.2990    0.0000 C   0  0  0  0  0  0  0  0  0  0  0  0
    1.5000    0.0000    0.0000 C   0  0  0  0  0  0  0  0  0  0  0  0
    0.7500    1.2990    0.0000 C   0  0  0  0  0  0  0  0  0  0  0  0
   -0.7500    1.2990    0.0000 C   0  0  0  0  0  0  0  0  0  0  0  0
   -1.5000    0.0000    0.0000 C   0  0  0  0  0  0  0  0  0  0  0  0
   -0.7500   -1.2990    0.0000 C   0  0  0  0  0  0  0  0  0  0  0  0
   -7.7663   -4.4646    0.0000 C   0  0  0  0  0  0  0  0  0  0  0  0
   -7.5058   -5.9418    0.0000 O   0  0  0  0  0  0  0  0  0  0  0  0
  -19.9233   -7.1657    0.0000 O   0  0  0  0  0  0  0  0  0  0  0  0
  -21.4005   -7.4261    0.0000 C   0  0  0  0  0  0  0  0  0  0  0  0
  -21.9135   -8.8357    0.0000 C   0  0  0  0  0  0  0  0  0  0  0  0
  -18.8972   -4.3466    0.0000 O   0  0  0  0  0  0  0  0  0  0  0  0
  -19.8614   -3.1975    0.0000 C   0  0  0  0  0  0  0  0  0  0  0  0
  -19.3484   -1.7880    0.0000 C   0  0  0  0  0  0  0  0  0  0  0  0
  1  2  1  0
  2  3  1  0
  3  4  1  0
  4  5  1  0
  5  6  1  0
  6  7  1  0
  7  8  1  0
  8  9  1  0
  9 10  1  0
 10 11  1  0
 10 12  1  0
 12 13  1  0
 13 14  1  0
 14 15  2  0
 14 16  1  0
 16 17  1  0
 17 18  1  0
 18 19  1  0
 18 20  1  0
 20 21  1  0
 21 22  1  0
 22 23  1  0
 23 24  1  0
 24 25  1  0
 25 26  1  0
 26 27  1  0
 27 28  1  0
 25 29  1  0
 29 30  1  0
 30 31  1  0
 25 32  1  0
 32 33  1  0
 33 34  1  0
 16 35  1  0
 35 36  2  0
 35 37  1  0
 37 38  1  0
 38 39  1  0
 39 40  1  0
 39 41  1  0
 41 42  1  0
 42 43  2  0
 42 44  1  0
 44 45  1  0
 45 46  2  0
 46 47  1  0
 47 48  2  0
 48 49  1  0
 49 50  1  0
 49 51  1  0
 49 52  1  0
 52 53  1  0
 53 54  1  0
 53 55  1  0
 53 56  1  0
 48 57  1  0
 57 58  2  0
 58 59  1  0
 59 60  2  0
 60 61  1  0
 61 62  2  0
 62 63  1  0
 63 64  2  0
 37 65  1  0
 65 66  2  0
  4 67  1  0
 67 68  1  0
 68 69  1  0
  4 70  1  0
 70 71  1  0
 71 72  1  0
 65 13  1  0
 64 42  1  0
 58 45  1  0
 64 59  1  0
M  END
>  <Candidate_ID>  (348) 
CAND_R2_348

>  <Candidate_Name>  (348) 
TDA-disiloxane

>  <Parent_Seed_ID>  (348) 
TRAIN_010

>  <Parent_Name>  (348) 
TDA

>  <Transformation_Code>  (348) 
disiloxane

>  <Design_Family>  (348) 
P-N-Si

>  <Preparation_Type>  (348) 
Additive

>  <Synthesis_Level>  (348) 
B

>  <Parent_Tanimoto_r3>  (348) 
0.7264150943396226

>  <Max_Train_Tanimoto_r3>  (348) 
0.7264150943396226

>  <Risk_Flags>  (348) 
DOPO-core substitution route needs confirmation

$$$$
CAND_R2_349 | TDA-glycidyloxy
     RDKit          2D

 69 73  0  0  0  0  0  0  0  0999 V2000
  -22.4898   -3.2529    0.0000 C   0  0  0  0  0  0  0  0  0  0  0  0
  -21.0803   -3.7659    0.0000 C   0  0  0  0  0  0  0  0  0  0  0  0
  -20.8198   -5.2431    0.0000 O   0  0  0  0  0  0  0  0  0  0  0  0
  -19.4102   -5.7561    0.0000 Si  0  0  0  0  0  4  0  0  0  0  0  0
  -18.0007   -6.2692    0.0000 C   0  0  0  0  0  0  0  0  0  0  0  0
  -16.8516   -5.3050    0.0000 C   0  0  0  0  0  0  0  0  0  0  0  0
  -15.4421   -5.8180    0.0000 C   0  0  0  0  0  0  0  0  0  0  0  0
  -14.2930   -4.8538    0.0000 N   0  0  0  0  0  0  0  0  0  0  0  0
  -12.8835   -5.3669    0.0000 C   0  0  0  0  0  0  0  0  0  0  0  0
  -11.7344   -4.4027    0.0000 C   0  0  0  0  0  0  0  0  0  0  0  0
  -11.9949   -2.9255    0.0000 O   0  0  0  0  0  0  0  0  0  0  0  0
  -10.3249   -4.9157    0.0000 C   0  0  0  0  0  0  0  0  0  0  0  0
   -9.1758   -3.9515    0.0000 N   0  0  0  0  0  0  0  0  0  0  0  0
   -9.4363   -2.4743    0.0000 C   0  0  0  0  0  0  0  0  0  0  0  0
  -10.8458   -1.9613    0.0000 O   0  0  0  0  0  0  0  0  0  0  0  0
   -8.2872   -1.5101    0.0000 N   0  0  0  0  0  0  0  0  0  0  0  0
   -8.5477   -0.0329    0.0000 C   0  0  0  0  0  0  0  0  0  0  0  0
   -7.3986    0.9313    0.0000 C   0  0  0  0  0  0  0  0  0  0  0  0
   -5.9891    0.4182    0.0000 O   0  0  0  0  0  0  0  0  0  0  0  0
   -7.6591    2.4085    0.0000 C   0  0  0  0  0  0  0  0  0  0  0  0
   -6.5100    3.3726    0.0000 N   0  0  0  0  0  0  0  0  0  0  0  0
   -6.7705    4.8499    0.0000 C   0  0  0  0  0  0  0  0  0  0  0  0
   -5.6214    5.8140    0.0000 C   0  0  0  0  0  0  0  0  0  0  0  0
   -5.8819    7.2913    0.0000 C   0  0  0  0  0  0  0  0  0  0  0  0
   -4.7328    8.2554    0.0000 Si  0  0  0  0  0  4  0  0  0  0  0  0
   -3.5838    9.2196    0.0000 O   0  0  0  0  0  0  0  0  0  0  0  0
   -2.1742    8.7066    0.0000 C   0  0  0  0  0  0  0  0  0  0  0  0
   -1.0252    9.6708    0.0000 C   0  0  0  0  0  0  0  0  0  0  0  0
   -5.6970    9.4045    0.0000 O   0  0  0  0  0  0  0  0  0  0  0  0
   -5.1840   10.8140    0.0000 C   0  0  0  0  0  0  0  0  0  0  0  0
   -6.1482   11.9631    0.0000 C   0  0  0  0  0  0  0  0  0  0  0  0
   -3.7687    7.1064    0.0000 O   0  0  0  0  0  0  0  0  0  0  0  0
   -2.2915    7.3668    0.0000 C   0  0  0  0  0  0  0  0  0  0  0  0
   -1.3273    6.2178    0.0000 C   0  0  0  0  0  0  0  0  0  0  0  0
   -6.8777   -2.0232    0.0000 C   0  0  0  0  0  0  0  0  0  0  0  0
   -5.7286   -1.0590    0.0000 O   0  0  0  0  0  0  0  0  0  0  0  0
   -6.6172   -3.5004    0.0000 N   0  0  0  0  0  0  0  0  0  0  0  0
   -5.2077   -4.0134    0.0000 C   0  0  0  0  0  0  0  0  0  0  0  0
   -4.0586   -3.0492    0.0000 C   0  0  0  0  0  0  0  0  0  0  0  0
   -4.3191   -1.5720    0.0000 O   0  0  0  0  0  0  0  0  0  0  0  0
   -2.6491   -3.5623    0.0000 C   0  0  0  0  0  0  0  0  0  0  0  0
   -1.5000   -2.5981    0.0000 P   0  0  0  0  0  0  0  0  0  0  0  0
   -2.6491   -1.6339    0.0000 O   0  0  0  0  0  0  0  0  0  0  0  0
   -0.7500   -3.8971    0.0000 O   0  0  0  0  0  0  0  0  0  0  0  0
    0.7500   -3.8971    0.0000 C   0  0  0  0  0  0  0  0  0  0  0  0
    1.5000   -5.1962    0.0000 C   0  0  0  0  0  0  0  0  0  0  0  0
    3.0000   -5.1962    0.0000 C   0  0  0  0  0  0  0  0  0  0  0  0
    3.7500   -3.8971    0.0000 C   0  0  0  0  0  0  0  0  0  0  0  0
    5.2500   -3.8971    0.0000 O   0  0  0  0  0  0  0  0  0  0  0  0
    6.0000   -5.1962    0.0000 C   0  0  0  0  0  0  0  0  0  0  0  0
    7.5000   -5.1962    0.0000 C   0  0  0  0  0  0  0  0  0  0  0  0
    8.7990   -4.4462    0.0000 C   0  0  0  0  0  0  0  0  0  0  0  0
    8.7990   -5.9462    0.0000 O   0  0  0  0  0  0  0  0  0  0  0  0
    3.0000   -2.5981    0.0000 C   0  0  0  0  0  0  0  0  0  0  0  0
    1.5000   -2.5981    0.0000 C   0  0  0  0  0  0  0  0  0  0  0  0
    0.7500   -1.2990    0.0000 C   0  0  0  0  0  0  0  0  0  0  0  0
    1.5000    0.0000    0.0000 C   0  0  0  0  0  0  0  0  0  0  0  0
    0.7500    1.2990    0.0000 C   0  0  0  0  0  0  0  0  0  0  0  0
   -0.7500    1.2990    0.0000 C   0  0  0  0  0  0  0  0  0  0  0  0
   -1.5000    0.0000    0.0000 C   0  0  0  0  0  0  0  0  0  0  0  0
   -0.7500   -1.2990    0.0000 C   0  0  0  0  0  0  0  0  0  0  0  0
   -7.7663   -4.4646    0.0000 C   0  0  0  0  0  0  0  0  0  0  0  0
   -7.5058   -5.9418    0.0000 O   0  0  0  0  0  0  0  0  0  0  0  0
  -19.9233   -7.1657    0.0000 O   0  0  0  0  0  0  0  0  0  0  0  0
  -21.4005   -7.4261    0.0000 C   0  0  0  0  0  0  0  0  0  0  0  0
  -21.9135   -8.8357    0.0000 C   0  0  0  0  0  0  0  0  0  0  0  0
  -18.8972   -4.3466    0.0000 O   0  0  0  0  0  0  0  0  0  0  0  0
  -19.8614   -3.1975    0.0000 C   0  0  0  0  0  0  0  0  0  0  0  0
  -19.3484   -1.7880    0.0000 C   0  0  0  0  0  0  0  0  0  0  0  0
  1  2  1  0
  2  3  1  0
  3  4  1  0
  4  5  1  0
  5  6  1  0
  6  7  1  0
  7  8  1  0
  8  9  1  0
  9 10  1  0
 10 11  1  0
 10 12  1  0
 12 13  1  0
 13 14  1  0
 14 15  2  0
 14 16  1  0
 16 17  1  0
 17 18  1  0
 18 19  1  0
 18 20  1  0
 20 21  1  0
 21 22  1  0
 22 23  1  0
 23 24  1  0
 24 25  1  0
 25 26  1  0
 26 27  1  0
 27 28  1  0
 25 29  1  0
 29 30  1  0
 30 31  1  0
 25 32  1  0
 32 33  1  0
 33 34  1  0
 16 35  1  0
 35 36  2  0
 35 37  1  0
 37 38  1  0
 38 39  1  0
 39 40  1  0
 39 41  1  0
 41 42  1  0
 42 43  2  0
 42 44  1  0
 44 45  1  0
 45 46  2  0
 46 47  1  0
 47 48  2  0
 48 49  1  0
 49 50  1  0
 50 51  1  0
 51 52  1  0
 52 53  1  0
 48 54  1  0
 54 55  2  0
 55 56  1  0
 56 57  2  0
 57 58  1  0
 58 59  2  0
 59 60  1  0
 60 61  2  0
 37 62  1  0
 62 63  2  0
  4 64  1  0
 64 65  1  0
 65 66  1  0
  4 67  1  0
 67 68  1  0
 68 69  1  0
 62 13  1  0
 61 42  1  0
 55 45  1  0
 61 56  1  0
 53 51  1  0
M  END
>  <Candidate_ID>  (349) 
CAND_R2_349

>  <Candidate_Name>  (349) 
TDA-glycidyloxy

>  <Parent_Seed_ID>  (349) 
TRAIN_010

>  <Parent_Name>  (349) 
TDA

>  <Transformation_Code>  (349) 
glycidyloxy

>  <Design_Family>  (349) 
P-N-Si

>  <Preparation_Type>  (349) 
Co-curing

>  <Synthesis_Level>  (349) 
B

>  <Parent_Tanimoto_r3>  (349) 
0.6936936936936937

>  <Max_Train_Tanimoto_r3>  (349) 
0.6936936936936937

>  <Risk_Flags>  (349) 
DOPO-core substitution route needs confirmation; candidate may be outside strict in-domain threshold

$$$$
CAND_R2_350 | TDA-diaminotriazine
     RDKit          2D

 72 76  0  0  0  0  0  0  0  0999 V2000
  -22.4898   -3.2529    0.0000 C   0  0  0  0  0  0  0  0  0  0  0  0
  -21.0803   -3.7659    0.0000 C   0  0  0  0  0  0  0  0  0  0  0  0
  -20.8198   -5.2431    0.0000 O   0  0  0  0  0  0  0  0  0  0  0  0
  -19.4102   -5.7561    0.0000 Si  0  0  0  0  0  4  0  0  0  0  0  0
  -18.0007   -6.2692    0.0000 C   0  0  0  0  0  0  0  0  0  0  0  0
  -16.8516   -5.3050    0.0000 C   0  0  0  0  0  0  0  0  0  0  0  0
  -15.4421   -5.8180    0.0000 C   0  0  0  0  0  0  0  0  0  0  0  0
  -14.2930   -4.8538    0.0000 N   0  0  0  0  0  0  0  0  0  0  0  0
  -12.8835   -5.3669    0.0000 C   0  0  0  0  0  0  0  0  0  0  0  0
  -11.7344   -4.4027    0.0000 C   0  0  0  0  0  0  0  0  0  0  0  0
  -11.9949   -2.9255    0.0000 O   0  0  0  0  0  0  0  0  0  0  0  0
  -10.3249   -4.9157    0.0000 C   0  0  0  0  0  0  0  0  0  0  0  0
   -9.1758   -3.9515    0.0000 N   0  0  0  0  0  0  0  0  0  0  0  0
   -9.4363   -2.4743    0.0000 C   0  0  0  0  0  0  0  0  0  0  0  0
  -10.8458   -1.9613    0.0000 O   0  0  0  0  0  0  0  0  0  0  0  0
   -8.2872   -1.5101    0.0000 N   0  0  0  0  0  0  0  0  0  0  0  0
   -8.5477   -0.0329    0.0000 C   0  0  0  0  0  0  0  0  0  0  0  0
   -7.3986    0.9313    0.0000 C   0  0  0  0  0  0  0  0  0  0  0  0
   -5.9891    0.4182    0.0000 O   0  0  0  0  0  0  0  0  0  0  0  0
   -7.6591    2.4085    0.0000 C   0  0  0  0  0  0  0  0  0  0  0  0
   -6.5100    3.3726    0.0000 N   0  0  0  0  0  0  0  0  0  0  0  0
   -6.7705    4.8499    0.0000 C   0  0  0  0  0  0  0  0  0  0  0  0
   -5.6214    5.8140    0.0000 C   0  0  0  0  0  0  0  0  0  0  0  0
   -5.8819    7.2913    0.0000 C   0  0  0  0  0  0  0  0  0  0  0  0
   -4.7328    8.2554    0.0000 Si  0  0  0  0  0  4  0  0  0  0  0  0
   -3.5838    9.2196    0.0000 O   0  0  0  0  0  0  0  0  0  0  0  0
   -2.1742    8.7066    0.0000 C   0  0  0  0  0  0  0  0  0  0  0  0
   -1.0252    9.6708    0.0000 C   0  0  0  0  0  0  0  0  0  0  0  0
   -5.6970    9.4045    0.0000 O   0  0  0  0  0  0  0  0  0  0  0  0
   -5.1840   10.8140    0.0000 C   0  0  0  0  0  0  0  0  0  0  0  0
   -6.1482   11.9631    0.0000 C   0  0  0  0  0  0  0  0  0  0  0  0
   -3.7687    7.1064    0.0000 O   0  0  0  0  0  0  0  0  0  0  0  0
   -2.2915    7.3668    0.0000 C   0  0  0  0  0  0  0  0  0  0  0  0
   -1.3273    6.2178    0.0000 C   0  0  0  0  0  0  0  0  0  0  0  0
   -6.8777   -2.0232    0.0000 C   0  0  0  0  0  0  0  0  0  0  0  0
   -5.7286   -1.0590    0.0000 O   0  0  0  0  0  0  0  0  0  0  0  0
   -6.6172   -3.5004    0.0000 N   0  0  0  0  0  0  0  0  0  0  0  0
   -5.2077   -4.0134    0.0000 C   0  0  0  0  0  0  0  0  0  0  0  0
   -4.0586   -3.0492    0.0000 C   0  0  0  0  0  0  0  0  0  0  0  0
   -4.3191   -1.5720    0.0000 O   0  0  0  0  0  0  0  0  0  0  0  0
   -2.6491   -3.5623    0.0000 C   0  0  0  0  0  0  0  0  0  0  0  0
   -1.5000   -2.5981    0.0000 P   0  0  0  0  0  0  0  0  0  0  0  0
   -2.6491   -1.6339    0.0000 O   0  0  0  0  0  0  0  0  0  0  0  0
   -0.7500   -3.8971    0.0000 O   0  0  0  0  0  0  0  0  0  0  0  0
    0.7500   -3.8971    0.0000 C   0  0  0  0  0  0  0  0  0  0  0  0
    1.5000   -5.1962    0.0000 C   0  0  0  0  0  0  0  0  0  0  0  0
    3.0000   -5.1962    0.0000 C   0  0  0  0  0  0  0  0  0  0  0  0
    3.7500   -3.8971    0.0000 C   0  0  0  0  0  0  0  0  0  0  0  0
    5.2500   -3.8971    0.0000 C   0  0  0  0  0  0  0  0  0  0  0  0
    6.0000   -5.1962    0.0000 N   0  0  0  0  0  0  0  0  0  0  0  0
    7.5000   -5.1962    0.0000 C   0  0  0  0  0  0  0  0  0  0  0  0
    8.2500   -6.4952    0.0000 N   0  0  0  0  0  0  0  0  0  0  0  0
    8.2500   -3.8971    0.0000 N   0  0  0  0  0  0  0  0  0  0  0  0
    7.5000   -2.5981    0.0000 C   0  0  0  0  0  0  0  0  0  0  0  0
    8.2500   -1.2990    0.0000 N   0  0  0  0  0  0  0  0  0  0  0  0
    6.0000   -2.5981    0.0000 N   0  0  0  0  0  0  0  0  0  0  0  0
    3.0000   -2.5981    0.0000 C   0  0  0  0  0  0  0  0  0  0  0  0
    1.5000   -2.5981    0.0000 C   0  0  0  0  0  0  0  0  0  0  0  0
    0.7500   -1.2990    0.0000 C   0  0  0  0  0  0  0  0  0  0  0  0
    1.5000    0.0000    0.0000 C   0  0  0  0  0  0  0  0  0  0  0  0
    0.7500    1.2990    0.0000 C   0  0  0  0  0  0  0  0  0  0  0  0
   -0.7500    1.2990    0.0000 C   0  0  0  0  0  0  0  0  0  0  0  0
   -1.5000    0.0000    0.0000 C   0  0  0  0  0  0  0  0  0  0  0  0
   -0.7500   -1.2990    0.0000 C   0  0  0  0  0  0  0  0  0  0  0  0
   -7.7663   -4.4646    0.0000 C   0  0  0  0  0  0  0  0  0  0  0  0
   -7.5058   -5.9418    0.0000 O   0  0  0  0  0  0  0  0  0  0  0  0
  -19.9233   -7.1657    0.0000 O   0  0  0  0  0  0  0  0  0  0  0  0
  -21.4005   -7.4261    0.0000 C   0  0  0  0  0  0  0  0  0  0  0  0
  -21.9135   -8.8357    0.0000 C   0  0  0  0  0  0  0  0  0  0  0  0
  -18.8972   -4.3466    0.0000 O   0  0  0  0  0  0  0  0  0  0  0  0
  -19.8614   -3.1975    0.0000 C   0  0  0  0  0  0  0  0  0  0  0  0
  -19.3484   -1.7880    0.0000 C   0  0  0  0  0  0  0  0  0  0  0  0
  1  2  1  0
  2  3  1  0
  3  4  1  0
  4  5  1  0
  5  6  1  0
  6  7  1  0
  7  8  1  0
  8  9  1  0
  9 10  1  0
 10 11  1  0
 10 12  1  0
 12 13  1  0
 13 14  1  0
 14 15  2  0
 14 16  1  0
 16 17  1  0
 17 18  1  0
 18 19  1  0
 18 20  1  0
 20 21  1  0
 21 22  1  0
 22 23  1  0
 23 24  1  0
 24 25  1  0
 25 26  1  0
 26 27  1  0
 27 28  1  0
 25 29  1  0
 29 30  1  0
 30 31  1  0
 25 32  1  0
 32 33  1  0
 33 34  1  0
 16 35  1  0
 35 36  2  0
 35 37  1  0
 37 38  1  0
 38 39  1  0
 39 40  1  0
 39 41  1  0
 41 42  1  0
 42 43  2  0
 42 44  1  0
 44 45  1  0
 45 46  2  0
 46 47  1  0
 47 48  2  0
 48 49  1  0
 49 50  2  0
 50 51  1  0
 51 52  1  0
 51 53  2  0
 53 54  1  0
 54 55  1  0
 54 56  2  0
 48 57  1  0
 57 58  2  0
 58 59  1  0
 59 60  2  0
 60 61  1  0
 61 62  2  0
 62 63  1  0
 63 64  2  0
 37 65  1  0
 65 66  2  0
  4 67  1  0
 67 68  1  0
 68 69  1  0
  4 70  1  0
 70 71  1  0
 71 72  1  0
 65 13  1  0
 64 42  1  0
 58 45  1  0
 64 59  1  0
 56 49  1  0
M  END
>  <Candidate_ID>  (350) 
CAND_R2_350

>  <Candidate_Name>  (350) 
TDA-diaminotriazine

>  <Parent_Seed_ID>  (350) 
TRAIN_010

>  <Parent_Name>  (350) 
TDA

>  <Transformation_Code>  (350) 
diaminotriazine

>  <Design_Family>  (350) 
P-N-Si

>  <Preparation_Type>  (350) 
Co-curing

>  <Synthesis_Level>  (350) 
B

>  <Parent_Tanimoto_r3>  (350) 
0.7

>  <Max_Train_Tanimoto_r3>  (350) 
0.7

>  <Risk_Flags>  (350) 
DOPO-core substitution route needs confirmation

$$$$
CAND_R2_351 | TDA-piperazine
     RDKit          2D

 70 74  0  0  0  0  0  0  0  0999 V2000
  -22.4898   -3.2529    0.0000 C   0  0  0  0  0  0  0  0  0  0  0  0
  -21.0803   -3.7659    0.0000 C   0  0  0  0  0  0  0  0  0  0  0  0
  -20.8198   -5.2431    0.0000 O   0  0  0  0  0  0  0  0  0  0  0  0
  -19.4102   -5.7561    0.0000 Si  0  0  0  0  0  4  0  0  0  0  0  0
  -18.0007   -6.2692    0.0000 C   0  0  0  0  0  0  0  0  0  0  0  0
  -16.8516   -5.3050    0.0000 C   0  0  0  0  0  0  0  0  0  0  0  0
  -15.4421   -5.8180    0.0000 C   0  0  0  0  0  0  0  0  0  0  0  0
  -14.2930   -4.8538    0.0000 N   0  0  0  0  0  0  0  0  0  0  0  0
  -12.8835   -5.3669    0.0000 C   0  0  0  0  0  0  0  0  0  0  0  0
  -11.7344   -4.4027    0.0000 C   0  0  0  0  0  0  0  0  0  0  0  0
  -11.9949   -2.9255    0.0000 O   0  0  0  0  0  0  0  0  0  0  0  0
  -10.3249   -4.9157    0.0000 C   0  0  0  0  0  0  0  0  0  0  0  0
   -9.1758   -3.9515    0.0000 N   0  0  0  0  0  0  0  0  0  0  0  0
   -9.4363   -2.4743    0.0000 C   0  0  0  0  0  0  0  0  0  0  0  0
  -10.8458   -1.9613    0.0000 O   0  0  0  0  0  0  0  0  0  0  0  0
   -8.2872   -1.5101    0.0000 N   0  0  0  0  0  0  0  0  0  0  0  0
   -8.5477   -0.0329    0.0000 C   0  0  0  0  0  0  0  0  0  0  0  0
   -7.3986    0.9313    0.0000 C   0  0  0  0  0  0  0  0  0  0  0  0
   -5.9891    0.4182    0.0000 O   0  0  0  0  0  0  0  0  0  0  0  0
   -7.6591    2.4085    0.0000 C   0  0  0  0  0  0  0  0  0  0  0  0
   -6.5100    3.3726    0.0000 N   0  0  0  0  0  0  0  0  0  0  0  0
   -6.7705    4.8499    0.0000 C   0  0  0  0  0  0  0  0  0  0  0  0
   -5.6214    5.8140    0.0000 C   0  0  0  0  0  0  0  0  0  0  0  0
   -5.8819    7.2913    0.0000 C   0  0  0  0  0  0  0  0  0  0  0  0
   -4.7328    8.2554    0.0000 Si  0  0  0  0  0  4  0  0  0  0  0  0
   -3.5838    9.2196    0.0000 O   0  0  0  0  0  0  0  0  0  0  0  0
   -2.1742    8.7066    0.0000 C   0  0  0  0  0  0  0  0  0  0  0  0
   -1.0252    9.6708    0.0000 C   0  0  0  0  0  0  0  0  0  0  0  0
   -5.6970    9.4045    0.0000 O   0  0  0  0  0  0  0  0  0  0  0  0
   -5.1840   10.8140    0.0000 C   0  0  0  0  0  0  0  0  0  0  0  0
   -6.1482   11.9631    0.0000 C   0  0  0  0  0  0  0  0  0  0  0  0
   -3.7687    7.1064    0.0000 O   0  0  0  0  0  0  0  0  0  0  0  0
   -2.2915    7.3668    0.0000 C   0  0  0  0  0  0  0  0  0  0  0  0
   -1.3273    6.2178    0.0000 C   0  0  0  0  0  0  0  0  0  0  0  0
   -6.8777   -2.0232    0.0000 C   0  0  0  0  0  0  0  0  0  0  0  0
   -5.7286   -1.0590    0.0000 O   0  0  0  0  0  0  0  0  0  0  0  0
   -6.6172   -3.5004    0.0000 N   0  0  0  0  0  0  0  0  0  0  0  0
   -5.2077   -4.0134    0.0000 C   0  0  0  0  0  0  0  0  0  0  0  0
   -4.0586   -3.0492    0.0000 C   0  0  0  0  0  0  0  0  0  0  0  0
   -4.3191   -1.5720    0.0000 O   0  0  0  0  0  0  0  0  0  0  0  0
   -2.6491   -3.5623    0.0000 C   0  0  0  0  0  0  0  0  0  0  0  0
   -1.5000   -2.5981    0.0000 P   0  0  0  0  0  0  0  0  0  0  0  0
   -2.6491   -1.6339    0.0000 O   0  0  0  0  0  0  0  0  0  0  0  0
   -0.7500   -3.8971    0.0000 O   0  0  0  0  0  0  0  0  0  0  0  0
    0.7500   -3.8971    0.0000 C   0  0  0  0  0  0  0  0  0  0  0  0
    1.5000   -5.1962    0.0000 C   0  0  0  0  0  0  0  0  0  0  0  0
    3.0000   -5.1962    0.0000 C   0  0  0  0  0  0  0  0  0  0  0  0
    3.7500   -3.8971    0.0000 C   0  0  0  0  0  0  0  0  0  0  0  0
    5.2500   -3.8971    0.0000 N   0  0  0  0  0  0  0  0  0  0  0  0
    6.0000   -5.1962    0.0000 C   0  0  0  0  0  0  0  0  0  0  0  0
    7.5000   -5.1962    0.0000 C   0  0  0  0  0  0  0  0  0  0  0  0
    8.2500   -3.8971    0.0000 N   0  0  0  0  0  0  0  0  0  0  0  0
    7.5000   -2.5981    0.0000 C   0  0  0  0  0  0  0  0  0  0  0  0
    6.0000   -2.5981    0.0000 C   0  0  0  0  0  0  0  0  0  0  0  0
    3.0000   -2.5981    0.0000 C   0  0  0  0  0  0  0  0  0  0  0  0
    1.5000   -2.5981    0.0000 C   0  0  0  0  0  0  0  0  0  0  0  0
    0.7500   -1.2990    0.0000 C   0  0  0  0  0  0  0  0  0  0  0  0
    1.5000    0.0000    0.0000 C   0  0  0  0  0  0  0  0  0  0  0  0
    0.7500    1.2990    0.0000 C   0  0  0  0  0  0  0  0  0  0  0  0
   -0.7500    1.2990    0.0000 C   0  0  0  0  0  0  0  0  0  0  0  0
   -1.5000    0.0000    0.0000 C   0  0  0  0  0  0  0  0  0  0  0  0
   -0.7500   -1.2990    0.0000 C   0  0  0  0  0  0  0  0  0  0  0  0
   -7.7663   -4.4646    0.0000 C   0  0  0  0  0  0  0  0  0  0  0  0
   -7.5058   -5.9418    0.0000 O   0  0  0  0  0  0  0  0  0  0  0  0
  -19.9233   -7.1657    0.0000 O   0  0  0  0  0  0  0  0  0  0  0  0
  -21.4005   -7.4261    0.0000 C   0  0  0  0  0  0  0  0  0  0  0  0
  -21.9135   -8.8357    0.0000 C   0  0  0  0  0  0  0  0  0  0  0  0
  -18.8972   -4.3466    0.0000 O   0  0  0  0  0  0  0  0  0  0  0  0
  -19.8614   -3.1975    0.0000 C   0  0  0  0  0  0  0  0  0  0  0  0
  -19.3484   -1.7880    0.0000 C   0  0  0  0  0  0  0  0  0  0  0  0
  1  2  1  0
  2  3  1  0
  3  4  1  0
  4  5  1  0
  5  6  1  0
  6  7  1  0
  7  8  1  0
  8  9  1  0
  9 10  1  0
 10 11  1  0
 10 12  1  0
 12 13  1  0
 13 14  1  0
 14 15  2  0
 14 16  1  0
 16 17  1  0
 17 18  1  0
 18 19  1  0
 18 20  1  0
 20 21  1  0
 21 22  1  0
 22 23  1  0
 23 24  1  0
 24 25  1  0
 25 26  1  0
 26 27  1  0
 27 28  1  0
 25 29  1  0
 29 30  1  0
 30 31  1  0
 25 32  1  0
 32 33  1  0
 33 34  1  0
 16 35  1  0
 35 36  2  0
 35 37  1  0
 37 38  1  0
 38 39  1  0
 39 40  1  0
 39 41  1  0
 41 42  1  0
 42 43  2  0
 42 44  1  0
 44 45  1  0
 45 46  2  0
 46 47  1  0
 47 48  2  0
 48 49  1  0
 49 50  1  0
 50 51  1  0
 51 52  1  0
 52 53  1  0
 53 54  1  0
 48 55  1  0
 55 56  2  0
 56 57  1  0
 57 58  2  0
 58 59  1  0
 59 60  2  0
 60 61  1  0
 61 62  2  0
 37 63  1  0
 63 64  2  0
  4 65  1  0
 65 66  1  0
 66 67  1  0
  4 68  1  0
 68 69  1  0
 69 70  1  0
 63 13  1  0
 62 42  1  0
 56 45  1  0
 62 57  1  0
 54 49  1  0
M  END
>  <Candidate_ID>  (351) 
CAND_R2_351

>  <Candidate_Name>  (351) 
TDA-piperazine

>  <Parent_Seed_ID>  (351) 
TRAIN_010

>  <Parent_Name>  (351) 
TDA

>  <Transformation_Code>  (351) 
piperazine

>  <Design_Family>  (351) 
P-N-Si

>  <Preparation_Type>  (351) 
Co-curing

>  <Synthesis_Level>  (351) 
B

>  <Parent_Tanimoto_r3>  (351) 
0.6936936936936937

>  <Max_Train_Tanimoto_r3>  (351) 
0.6936936936936937

>  <Risk_Flags>  (351) 
DOPO-core substitution route needs confirmation; candidate may be outside strict in-domain threshold

$$$$
CAND_R2_352 | TDA-benzamide-linker
     RDKit          2D

 73 77  0  0  0  0  0  0  0  0999 V2000
  -22.4898   -3.2529    0.0000 C   0  0  0  0  0  0  0  0  0  0  0  0
  -21.0803   -3.7659    0.0000 C   0  0  0  0  0  0  0  0  0  0  0  0
  -20.8198   -5.2431    0.0000 O   0  0  0  0  0  0  0  0  0  0  0  0
  -19.4102   -5.7561    0.0000 Si  0  0  0  0  0  4  0  0  0  0  0  0
  -18.0007   -6.2692    0.0000 C   0  0  0  0  0  0  0  0  0  0  0  0
  -16.8516   -5.3050    0.0000 C   0  0  0  0  0  0  0  0  0  0  0  0
  -15.4421   -5.8180    0.0000 C   0  0  0  0  0  0  0  0  0  0  0  0
  -14.2930   -4.8538    0.0000 N   0  0  0  0  0  0  0  0  0  0  0  0
  -12.8835   -5.3669    0.0000 C   0  0  0  0  0  0  0  0  0  0  0  0
  -11.7344   -4.4027    0.0000 C   0  0  0  0  0  0  0  0  0  0  0  0
  -11.9949   -2.9255    0.0000 O   0  0  0  0  0  0  0  0  0  0  0  0
  -10.3249   -4.9157    0.0000 C   0  0  0  0  0  0  0  0  0  0  0  0
   -9.1758   -3.9515    0.0000 N   0  0  0  0  0  0  0  0  0  0  0  0
   -9.4363   -2.4743    0.0000 C   0  0  0  0  0  0  0  0  0  0  0  0
  -10.8458   -1.9613    0.0000 O   0  0  0  0  0  0  0  0  0  0  0  0
   -8.2872   -1.5101    0.0000 N   0  0  0  0  0  0  0  0  0  0  0  0
   -8.5477   -0.0329    0.0000 C   0  0  0  0  0  0  0  0  0  0  0  0
   -7.3986    0.9313    0.0000 C   0  0  0  0  0  0  0  0  0  0  0  0
   -5.9891    0.4182    0.0000 O   0  0  0  0  0  0  0  0  0  0  0  0
   -7.6591    2.4085    0.0000 C   0  0  0  0  0  0  0  0  0  0  0  0
   -6.5100    3.3726    0.0000 N   0  0  0  0  0  0  0  0  0  0  0  0
   -6.7705    4.8499    0.0000 C   0  0  0  0  0  0  0  0  0  0  0  0
   -5.6214    5.8140    0.0000 C   0  0  0  0  0  0  0  0  0  0  0  0
   -5.8819    7.2913    0.0000 C   0  0  0  0  0  0  0  0  0  0  0  0
   -4.7328    8.2554    0.0000 Si  0  0  0  0  0  4  0  0  0  0  0  0
   -3.5838    9.2196    0.0000 O   0  0  0  0  0  0  0  0  0  0  0  0
   -2.1742    8.7066    0.0000 C   0  0  0  0  0  0  0  0  0  0  0  0
   -1.0252    9.6708    0.0000 C   0  0  0  0  0  0  0  0  0  0  0  0
   -5.6970    9.4045    0.0000 O   0  0  0  0  0  0  0  0  0  0  0  0
   -5.1840   10.8140    0.0000 C   0  0  0  0  0  0  0  0  0  0  0  0
   -6.1482   11.9631    0.0000 C   0  0  0  0  0  0  0  0  0  0  0  0
   -3.7687    7.1064    0.0000 O   0  0  0  0  0  0  0  0  0  0  0  0
   -2.2915    7.3668    0.0000 C   0  0  0  0  0  0  0  0  0  0  0  0
   -1.3273    6.2178    0.0000 C   0  0  0  0  0  0  0  0  0  0  0  0
   -6.8777   -2.0232    0.0000 C   0  0  0  0  0  0  0  0  0  0  0  0
   -5.7286   -1.0590    0.0000 O   0  0  0  0  0  0  0  0  0  0  0  0
   -6.6172   -3.5004    0.0000 N   0  0  0  0  0  0  0  0  0  0  0  0
   -5.2077   -4.0134    0.0000 C   0  0  0  0  0  0  0  0  0  0  0  0
   -4.0586   -3.0492    0.0000 C   0  0  0  0  0  0  0  0  0  0  0  0
   -4.3191   -1.5720    0.0000 O   0  0  0  0  0  0  0  0  0  0  0  0
   -2.6491   -3.5623    0.0000 C   0  0  0  0  0  0  0  0  0  0  0  0
   -1.5000   -2.5981    0.0000 P   0  0  0  0  0  0  0  0  0  0  0  0
   -2.6491   -1.6339    0.0000 O   0  0  0  0  0  0  0  0  0  0  0  0
   -0.7500   -3.8971    0.0000 O   0  0  0  0  0  0  0  0  0  0  0  0
    0.7500   -3.8971    0.0000 C   0  0  0  0  0  0  0  0  0  0  0  0
    1.5000   -5.1962    0.0000 C   0  0  0  0  0  0  0  0  0  0  0  0
    3.0000   -5.1962    0.0000 C   0  0  0  0  0  0  0  0  0  0  0  0
    3.7500   -3.8971    0.0000 C   0  0  0  0  0  0  0  0  0  0  0  0
    5.2500   -3.8971    0.0000 N   0  0  0  0  0  0  0  0  0  0  0  0
    6.0000   -5.1962    0.0000 C   0  0  0  0  0  0  0  0  0  0  0  0
    5.2500   -6.4952    0.0000 O   0  0  0  0  0  0  0  0  0  0  0  0
    7.5000   -5.1962    0.0000 C   0  0  0  0  0  0  0  0  0  0  0  0
    8.2500   -6.4952    0.0000 C   0  0  0  0  0  0  0  0  0  0  0  0
    9.7500   -6.4952    0.0000 C   0  0  0  0  0  0  0  0  0  0  0  0
   10.5000   -5.1962    0.0000 C   0  0  0  0  0  0  0  0  0  0  0  0
    9.7500   -3.8971    0.0000 C   0  0  0  0  0  0  0  0  0  0  0  0
    8.2500   -3.8971    0.0000 C   0  0  0  0  0  0  0  0  0  0  0  0
    3.0000   -2.5981    0.0000 C   0  0  0  0  0  0  0  0  0  0  0  0
    1.5000   -2.5981    0.0000 C   0  0  0  0  0  0  0  0  0  0  0  0
    0.7500   -1.2990    0.0000 C   0  0  0  0  0  0  0  0  0  0  0  0
    1.5000    0.0000    0.0000 C   0  0  0  0  0  0  0  0  0  0  0  0
    0.7500    1.2990    0.0000 C   0  0  0  0  0  0  0  0  0  0  0  0
   -0.7500    1.2990    0.0000 C   0  0  0  0  0  0  0  0  0  0  0  0
   -1.5000    0.0000    0.0000 C   0  0  0  0  0  0  0  0  0  0  0  0
   -0.7500   -1.2990    0.0000 C   0  0  0  0  0  0  0  0  0  0  0  0
   -7.7663   -4.4646    0.0000 C   0  0  0  0  0  0  0  0  0  0  0  0
   -7.5058   -5.9418    0.0000 O   0  0  0  0  0  0  0  0  0  0  0  0
  -19.9233   -7.1657    0.0000 O   0  0  0  0  0  0  0  0  0  0  0  0
  -21.4005   -7.4261    0.0000 C   0  0  0  0  0  0  0  0  0  0  0  0
  -21.9135   -8.8357    0.0000 C   0  0  0  0  0  0  0  0  0  0  0  0
  -18.8972   -4.3466    0.0000 O   0  0  0  0  0  0  0  0  0  0  0  0
  -19.8614   -3.1975    0.0000 C   0  0  0  0  0  0  0  0  0  0  0  0
  -19.3484   -1.7880    0.0000 C   0  0  0  0  0  0  0  0  0  0  0  0
  1  2  1  0
  2  3  1  0
  3  4  1  0
  4  5  1  0
  5  6  1  0
  6  7  1  0
  7  8  1  0
  8  9  1  0
  9 10  1  0
 10 11  1  0
 10 12  1  0
 12 13  1  0
 13 14  1  0
 14 15  2  0
 14 16  1  0
 16 17  1  0
 17 18  1  0
 18 19  1  0
 18 20  1  0
 20 21  1  0
 21 22  1  0
 22 23  1  0
 23 24  1  0
 24 25  1  0
 25 26  1  0
 26 27  1  0
 27 28  1  0
 25 29  1  0
 29 30  1  0
 30 31  1  0
 25 32  1  0
 32 33  1  0
 33 34  1  0
 16 35  1  0
 35 36  2  0
 35 37  1  0
 37 38  1  0
 38 39  1  0
 39 40  1  0
 39 41  1  0
 41 42  1  0
 42 43  2  0
 42 44  1  0
 44 45  1  0
 45 46  2  0
 46 47  1  0
 47 48  2  0
 48 49  1  0
 49 50  1  0
 50 51  2  0
 50 52  1  0
 52 53  2  0
 53 54  1  0
 54 55  2  0
 55 56  1  0
 56 57  2  0
 48 58  1  0
 58 59  2  0
 59 60  1  0
 60 61  2  0
 61 62  1  0
 62 63  2  0
 63 64  1  0
 64 65  2  0
 37 66  1  0
 66 67  2  0
  4 68  1  0
 68 69  1  0
 69 70  1  0
  4 71  1  0
 71 72  1  0
 72 73  1  0
 66 13  1  0
 65 42  1  0
 59 45  1  0
 65 60  1  0
 57 52  1  0
M  END
>  <Candidate_ID>  (352) 
CAND_R2_352

>  <Candidate_Name>  (352) 
TDA-benzamide-linker

>  <Parent_Seed_ID>  (352) 
TRAIN_010

>  <Parent_Name>  (352) 
TDA

>  <Transformation_Code>  (352) 
benzamide_linker

>  <Design_Family>  (352) 
P-N-Si

>  <Preparation_Type>  (352) 
Additive

>  <Synthesis_Level>  (352) 
B

>  <Parent_Tanimoto_r3>  (352) 
0.6814159292035398

>  <Max_Train_Tanimoto_r3>  (352) 
0.6814159292035398

>  <Risk_Flags>  (352) 
DOPO-core substitution route needs confirmation; candidate may be outside strict in-domain threshold

$$$$
CAND_R2_353 | TDA-phenyl
     RDKit          2D

 70 74  0  0  0  0  0  0  0  0999 V2000
  -22.4898   -3.2529    0.0000 C   0  0  0  0  0  0  0  0  0  0  0  0
  -21.0803   -3.7659    0.0000 C   0  0  0  0  0  0  0  0  0  0  0  0
  -20.8198   -5.2431    0.0000 O   0  0  0  0  0  0  0  0  0  0  0  0
  -19.4102   -5.7561    0.0000 Si  0  0  0  0  0  4  0  0  0  0  0  0
  -18.0007   -6.2692    0.0000 C   0  0  0  0  0  0  0  0  0  0  0  0
  -16.8516   -5.3050    0.0000 C   0  0  0  0  0  0  0  0  0  0  0  0
  -15.4421   -5.8180    0.0000 C   0  0  0  0  0  0  0  0  0  0  0  0
  -14.2930   -4.8538    0.0000 N   0  0  0  0  0  0  0  0  0  0  0  0
  -12.8835   -5.3669    0.0000 C   0  0  0  0  0  0  0  0  0  0  0  0
  -11.7344   -4.4027    0.0000 C   0  0  0  0  0  0  0  0  0  0  0  0
  -11.9949   -2.9255    0.0000 O   0  0  0  0  0  0  0  0  0  0  0  0
  -10.3249   -4.9157    0.0000 C   0  0  0  0  0  0  0  0  0  0  0  0
   -9.1758   -3.9515    0.0000 N   0  0  0  0  0  0  0  0  0  0  0  0
   -9.4363   -2.4743    0.0000 C   0  0  0  0  0  0  0  0  0  0  0  0
  -10.8458   -1.9613    0.0000 O   0  0  0  0  0  0  0  0  0  0  0  0
   -8.2872   -1.5101    0.0000 N   0  0  0  0  0  0  0  0  0  0  0  0
   -8.5477   -0.0329    0.0000 C   0  0  0  0  0  0  0  0  0  0  0  0
   -7.3986    0.9313    0.0000 C   0  0  0  0  0  0  0  0  0  0  0  0
   -5.9891    0.4182    0.0000 O   0  0  0  0  0  0  0  0  0  0  0  0
   -7.6591    2.4085    0.0000 C   0  0  0  0  0  0  0  0  0  0  0  0
   -6.5100    3.3726    0.0000 N   0  0  0  0  0  0  0  0  0  0  0  0
   -6.7705    4.8499    0.0000 C   0  0  0  0  0  0  0  0  0  0  0  0
   -5.6214    5.8140    0.0000 C   0  0  0  0  0  0  0  0  0  0  0  0
   -5.8819    7.2913    0.0000 C   0  0  0  0  0  0  0  0  0  0  0  0
   -4.7328    8.2554    0.0000 Si  0  0  0  0  0  4  0  0  0  0  0  0
   -3.5838    9.2196    0.0000 O   0  0  0  0  0  0  0  0  0  0  0  0
   -2.1742    8.7066    0.0000 C   0  0  0  0  0  0  0  0  0  0  0  0
   -1.0252    9.6708    0.0000 C   0  0  0  0  0  0  0  0  0  0  0  0
   -5.6970    9.4045    0.0000 O   0  0  0  0  0  0  0  0  0  0  0  0
   -5.1840   10.8140    0.0000 C   0  0  0  0  0  0  0  0  0  0  0  0
   -6.1482   11.9631    0.0000 C   0  0  0  0  0  0  0  0  0  0  0  0
   -3.7687    7.1064    0.0000 O   0  0  0  0  0  0  0  0  0  0  0  0
   -2.2915    7.3668    0.0000 C   0  0  0  0  0  0  0  0  0  0  0  0
   -1.3273    6.2178    0.0000 C   0  0  0  0  0  0  0  0  0  0  0  0
   -6.8777   -2.0232    0.0000 C   0  0  0  0  0  0  0  0  0  0  0  0
   -5.7286   -1.0590    0.0000 O   0  0  0  0  0  0  0  0  0  0  0  0
   -6.6172   -3.5004    0.0000 N   0  0  0  0  0  0  0  0  0  0  0  0
   -5.2077   -4.0134    0.0000 C   0  0  0  0  0  0  0  0  0  0  0  0
   -4.0586   -3.0492    0.0000 C   0  0  0  0  0  0  0  0  0  0  0  0
   -4.3191   -1.5720    0.0000 O   0  0  0  0  0  0  0  0  0  0  0  0
   -2.6491   -3.5623    0.0000 C   0  0  0  0  0  0  0  0  0  0  0  0
   -1.5000   -2.5981    0.0000 P   0  0  0  0  0  0  0  0  0  0  0  0
   -2.6491   -1.6339    0.0000 O   0  0  0  0  0  0  0  0  0  0  0  0
   -0.7500   -3.8971    0.0000 O   0  0  0  0  0  0  0  0  0  0  0  0
    0.7500   -3.8971    0.0000 C   0  0  0  0  0  0  0  0  0  0  0  0
    1.5000   -5.1962    0.0000 C   0  0  0  0  0  0  0  0  0  0  0  0
    3.0000   -5.1962    0.0000 C   0  0  0  0  0  0  0  0  0  0  0  0
    3.7500   -3.8971    0.0000 C   0  0  0  0  0  0  0  0  0  0  0  0
    5.2500   -3.8971    0.0000 C   0  0  0  0  0  0  0  0  0  0  0  0
    6.0000   -5.1962    0.0000 C   0  0  0  0  0  0  0  0  0  0  0  0
    7.5000   -5.1962    0.0000 C   0  0  0  0  0  0  0  0  0  0  0  0
    8.2500   -3.8971    0.0000 C   0  0  0  0  0  0  0  0  0  0  0  0
    7.5000   -2.5981    0.0000 C   0  0  0  0  0  0  0  0  0  0  0  0
    6.0000   -2.5981    0.0000 C   0  0  0  0  0  0  0  0  0  0  0  0
    3.0000   -2.5981    0.0000 C   0  0  0  0  0  0  0  0  0  0  0  0
    1.5000   -2.5981    0.0000 C   0  0  0  0  0  0  0  0  0  0  0  0
    0.7500   -1.2990    0.0000 C   0  0  0  0  0  0  0  0  0  0  0  0
    1.5000    0.0000    0.0000 C   0  0  0  0  0  0  0  0  0  0  0  0
    0.7500    1.2990    0.0000 C   0  0  0  0  0  0  0  0  0  0  0  0
   -0.7500    1.2990    0.0000 C   0  0  0  0  0  0  0  0  0  0  0  0
   -1.5000    0.0000    0.0000 C   0  0  0  0  0  0  0  0  0  0  0  0
   -0.7500   -1.2990    0.0000 C   0  0  0  0  0  0  0  0  0  0  0  0
   -7.7663   -4.4646    0.0000 C   0  0  0  0  0  0  0  0  0  0  0  0
   -7.5058   -5.9418    0.0000 O   0  0  0  0  0  0  0  0  0  0  0  0
  -19.9233   -7.1657    0.0000 O   0  0  0  0  0  0  0  0  0  0  0  0
  -21.4005   -7.4261    0.0000 C   0  0  0  0  0  0  0  0  0  0  0  0
  -21.9135   -8.8357    0.0000 C   0  0  0  0  0  0  0  0  0  0  0  0
  -18.8972   -4.3466    0.0000 O   0  0  0  0  0  0  0  0  0  0  0  0
  -19.8614   -3.1975    0.0000 C   0  0  0  0  0  0  0  0  0  0  0  0
  -19.3484   -1.7880    0.0000 C   0  0  0  0  0  0  0  0  0  0  0  0
  1  2  1  0
  2  3  1  0
  3  4  1  0
  4  5  1  0
  5  6  1  0
  6  7  1  0
  7  8  1  0
  8  9  1  0
  9 10  1  0
 10 11  1  0
 10 12  1  0
 12 13  1  0
 13 14  1  0
 14 15  2  0
 14 16  1  0
 16 17  1  0
 17 18  1  0
 18 19  1  0
 18 20  1  0
 20 21  1  0
 21 22  1  0
 22 23  1  0
 23 24  1  0
 24 25  1  0
 25 26  1  0
 26 27  1  0
 27 28  1  0
 25 29  1  0
 29 30  1  0
 30 31  1  0
 25 32  1  0
 32 33  1  0
 33 34  1  0
 16 35  1  0
 35 36  2  0
 35 37  1  0
 37 38  1  0
 38 39  1  0
 39 40  1  0
 39 41  1  0
 41 42  1  0
 42 43  2  0
 42 44  1  0
 44 45  1  0
 45 46  2  0
 46 47  1  0
 47 48  2  0
 48 49  1  0
 49 50  2  0
 50 51  1  0
 51 52  2  0
 52 53  1  0
 53 54  2  0
 48 55  1  0
 55 56  2  0
 56 57  1  0
 57 58  2  0
 58 59  1  0
 59 60  2  0
 60 61  1  0
 61 62  2  0
 37 63  1  0
 63 64  2  0
  4 65  1  0
 65 66  1  0
 66 67  1  0
  4 68  1  0
 68 69  1  0
 69 70  1  0
 63 13  1  0
 62 42  1  0
 56 45  1  0
 62 57  1  0
 54 49  1  0
M  END
>  <Candidate_ID>  (353) 
CAND_R2_353

>  <Candidate_Name>  (353) 
TDA-phenyl

>  <Parent_Seed_ID>  (353) 
TRAIN_010

>  <Parent_Name>  (353) 
TDA

>  <Transformation_Code>  (353) 
phenyl

>  <Design_Family>  (353) 
P-N-Si

>  <Preparation_Type>  (353) 
Additive

>  <Synthesis_Level>  (353) 
B

>  <Parent_Tanimoto_r3>  (353) 
0.7333333333333333

>  <Max_Train_Tanimoto_r3>  (353) 
0.7333333333333333

>  <Risk_Flags>  (353) 
DOPO-core substitution route needs confirmation

$$$$
CAND_R2_354 | TDA-biphenyl
     RDKit          2D

 76 81  0  0  0  0  0  0  0  0999 V2000
  -22.4898   -3.2529    0.0000 C   0  0  0  0  0  0  0  0  0  0  0  0
  -21.0803   -3.7659    0.0000 C   0  0  0  0  0  0  0  0  0  0  0  0
  -20.8198   -5.2431    0.0000 O   0  0  0  0  0  0  0  0  0  0  0  0
  -19.4102   -5.7561    0.0000 Si  0  0  0  0  0  4  0  0  0  0  0  0
  -18.0007   -6.2692    0.0000 C   0  0  0  0  0  0  0  0  0  0  0  0
  -16.8516   -5.3050    0.0000 C   0  0  0  0  0  0  0  0  0  0  0  0
  -15.4421   -5.8180    0.0000 C   0  0  0  0  0  0  0  0  0  0  0  0
  -14.2930   -4.8538    0.0000 N   0  0  0  0  0  0  0  0  0  0  0  0
  -12.8835   -5.3669    0.0000 C   0  0  0  0  0  0  0  0  0  0  0  0
  -11.7344   -4.4027    0.0000 C   0  0  0  0  0  0  0  0  0  0  0  0
  -11.9949   -2.9255    0.0000 O   0  0  0  0  0  0  0  0  0  0  0  0
  -10.3249   -4.9157    0.0000 C   0  0  0  0  0  0  0  0  0  0  0  0
   -9.1758   -3.9515    0.0000 N   0  0  0  0  0  0  0  0  0  0  0  0
   -9.4363   -2.4743    0.0000 C   0  0  0  0  0  0  0  0  0  0  0  0
  -10.8458   -1.9613    0.0000 O   0  0  0  0  0  0  0  0  0  0  0  0
   -8.2872   -1.5101    0.0000 N   0  0  0  0  0  0  0  0  0  0  0  0
   -8.5477   -0.0329    0.0000 C   0  0  0  0  0  0  0  0  0  0  0  0
   -7.3986    0.9313    0.0000 C   0  0  0  0  0  0  0  0  0  0  0  0
   -5.9891    0.4182    0.0000 O   0  0  0  0  0  0  0  0  0  0  0  0
   -7.6591    2.4085    0.0000 C   0  0  0  0  0  0  0  0  0  0  0  0
   -6.5100    3.3726    0.0000 N   0  0  0  0  0  0  0  0  0  0  0  0
   -6.7705    4.8499    0.0000 C   0  0  0  0  0  0  0  0  0  0  0  0
   -5.6214    5.8140    0.0000 C   0  0  0  0  0  0  0  0  0  0  0  0
   -5.8819    7.2913    0.0000 C   0  0  0  0  0  0  0  0  0  0  0  0
   -4.7328    8.2554    0.0000 Si  0  0  0  0  0  4  0  0  0  0  0  0
   -3.5838    9.2196    0.0000 O   0  0  0  0  0  0  0  0  0  0  0  0
   -2.1742    8.7066    0.0000 C   0  0  0  0  0  0  0  0  0  0  0  0
   -1.0252    9.6708    0.0000 C   0  0  0  0  0  0  0  0  0  0  0  0
   -5.6970    9.4045    0.0000 O   0  0  0  0  0  0  0  0  0  0  0  0
   -5.1840   10.8140    0.0000 C   0  0  0  0  0  0  0  0  0  0  0  0
   -6.1482   11.9631    0.0000 C   0  0  0  0  0  0  0  0  0  0  0  0
   -3.7687    7.1064    0.0000 O   0  0  0  0  0  0  0  0  0  0  0  0
   -2.2915    7.3668    0.0000 C   0  0  0  0  0  0  0  0  0  0  0  0
   -1.3273    6.2178    0.0000 C   0  0  0  0  0  0  0  0  0  0  0  0
   -6.8777   -2.0232    0.0000 C   0  0  0  0  0  0  0  0  0  0  0  0
   -5.7286   -1.0590    0.0000 O   0  0  0  0  0  0  0  0  0  0  0  0
   -6.6172   -3.5004    0.0000 N   0  0  0  0  0  0  0  0  0  0  0  0
   -5.2077   -4.0134    0.0000 C   0  0  0  0  0  0  0  0  0  0  0  0
   -4.0586   -3.0492    0.0000 C   0  0  0  0  0  0  0  0  0  0  0  0
   -4.3191   -1.5720    0.0000 O   0  0  0  0  0  0  0  0  0  0  0  0
   -2.6491   -3.5623    0.0000 C   0  0  0  0  0  0  0  0  0  0  0  0
   -1.5000   -2.5981    0.0000 P   0  0  0  0  0  0  0  0  0  0  0  0
   -2.6491   -1.6339    0.0000 O   0  0  0  0  0  0  0  0  0  0  0  0
   -0.7500   -3.8971    0.0000 O   0  0  0  0  0  0  0  0  0  0  0  0
    0.7500   -3.8971    0.0000 C   0  0  0  0  0  0  0  0  0  0  0  0
    1.5000   -5.1962    0.0000 C   0  0  0  0  0  0  0  0  0  0  0  0
    3.0000   -5.1962    0.0000 C   0  0  0  0  0  0  0  0  0  0  0  0
    3.7500   -3.8971    0.0000 C   0  0  0  0  0  0  0  0  0  0  0  0
    5.2500   -3.8971    0.0000 C   0  0  0  0  0  0  0  0  0  0  0  0
    6.0000   -5.1962    0.0000 C   0  0  0  0  0  0  0  0  0  0  0  0
    7.5000   -5.1962    0.0000 C   0  0  0  0  0  0  0  0  0  0  0  0
    8.2500   -3.8971    0.0000 C   0  0  0  0  0  0  0  0  0  0  0  0
    9.7500   -3.8971    0.0000 C   0  0  0  0  0  0  0  0  0  0  0  0
   10.5000   -5.1962    0.0000 C   0  0  0  0  0  0  0  0  0  0  0  0
   12.0000   -5.1962    0.0000 C   0  0  0  0  0  0  0  0  0  0  0  0
   12.7500   -3.8971    0.0000 C   0  0  0  0  0  0  0  0  0  0  0  0
   12.0000   -2.5981    0.0000 C   0  0  0  0  0  0  0  0  0  0  0  0
   10.5000   -2.5981    0.0000 C   0  0  0  0  0  0  0  0  0  0  0  0
    7.5000   -2.5981    0.0000 C   0  0  0  0  0  0  0  0  0  0  0  0
    6.0000   -2.5981    0.0000 C   0  0  0  0  0  0  0  0  0  0  0  0
    3.0000   -2.5981    0.0000 C   0  0  0  0  0  0  0  0  0  0  0  0
    1.5000   -2.5981    0.0000 C   0  0  0  0  0  0  0  0  0  0  0  0
    0.7500   -1.2990    0.0000 C   0  0  0  0  0  0  0  0  0  0  0  0
    1.5000    0.0000    0.0000 C   0  0  0  0  0  0  0  0  0  0  0  0
    0.7500    1.2990    0.0000 C   0  0  0  0  0  0  0  0  0  0  0  0
   -0.7500    1.2990    0.0000 C   0  0  0  0  0  0  0  0  0  0  0  0
   -1.5000    0.0000    0.0000 C   0  0  0  0  0  0  0  0  0  0  0  0
   -0.7500   -1.2990    0.0000 C   0  0  0  0  0  0  0  0  0  0  0  0
   -7.7663   -4.4646    0.0000 C   0  0  0  0  0  0  0  0  0  0  0  0
   -7.5058   -5.9418    0.0000 O   0  0  0  0  0  0  0  0  0  0  0  0
  -19.9233   -7.1657    0.0000 O   0  0  0  0  0  0  0  0  0  0  0  0
  -21.4005   -7.4261    0.0000 C   0  0  0  0  0  0  0  0  0  0  0  0
  -21.9135   -8.8357    0.0000 C   0  0  0  0  0  0  0  0  0  0  0  0
  -18.8972   -4.3466    0.0000 O   0  0  0  0  0  0  0  0  0  0  0  0
  -19.8614   -3.1975    0.0000 C   0  0  0  0  0  0  0  0  0  0  0  0
  -19.3484   -1.7880    0.0000 C   0  0  0  0  0  0  0  0  0  0  0  0
  1  2  1  0
  2  3  1  0
  3  4  1  0
  4  5  1  0
  5  6  1  0
  6  7  1  0
  7  8  1  0
  8  9  1  0
  9 10  1  0
 10 11  1  0
 10 12  1  0
 12 13  1  0
 13 14  1  0
 14 15  2  0
 14 16  1  0
 16 17  1  0
 17 18  1  0
 18 19  1  0
 18 20  1  0
 20 21  1  0
 21 22  1  0
 22 23  1  0
 23 24  1  0
 24 25  1  0
 25 26  1  0
 26 27  1  0
 27 28  1  0
 25 29  1  0
 29 30  1  0
 30 31  1  0
 25 32  1  0
 32 33  1  0
 33 34  1  0
 16 35  1  0
 35 36  2  0
 35 37  1  0
 37 38  1  0
 38 39  1  0
 39 40  1  0
 39 41  1  0
 41 42  1  0
 42 43  2  0
 42 44  1  0
 44 45  1  0
 45 46  2  0
 46 47  1  0
 47 48  2  0
 48 49  1  0
 49 50  2  0
 50 51  1  0
 51 52  2  0
 52 53  1  0
 53 54  2  0
 54 55  1  0
 55 56  2  0
 56 57  1  0
 57 58  2  0
 52 59  1  0
 59 60  2  0
 48 61  1  0
 61 62  2  0
 62 63  1  0
 63 64  2  0
 64 65  1  0
 65 66  2  0
 66 67  1  0
 67 68  2  0
 37 69  1  0
 69 70  2  0
  4 71  1  0
 71 72  1  0
 72 73  1  0
  4 74  1  0
 74 75  1  0
 75 76  1  0
 69 13  1  0
 68 42  1  0
 62 45  1  0
 68 63  1  0
 60 49  1  0
 58 53  1  0
M  END
>  <Candidate_ID>  (354) 
CAND_R2_354

>  <Candidate_Name>  (354) 
TDA-biphenyl

>  <Parent_Seed_ID>  (354) 
TRAIN_010

>  <Parent_Name>  (354) 
TDA

>  <Transformation_Code>  (354) 
biphenyl

>  <Design_Family>  (354) 
P-N-Si

>  <Preparation_Type>  (354) 
Additive

>  <Synthesis_Level>  (354) 
B

>  <Parent_Tanimoto_r3>  (354) 
0.719626168224299

>  <Max_Train_Tanimoto_r3>  (354) 
0.719626168224299

>  <Risk_Flags>  (354) 
DOPO-core substitution route needs confirmation

$$$$
CAND_R2_355 | TDA-OH-glycidyl
     RDKit          2D

 68 72  0  0  0  0  0  0  0  0999 V2000
  -10.1125   -9.6203    0.0000 C   0  0  0  0  0  0  0  0  0  0  0  0
   -8.7030  -10.1334    0.0000 C   0  0  0  0  0  0  0  0  0  0  0  0
   -8.4425  -11.6106    0.0000 O   0  0  0  0  0  0  0  0  0  0  0  0
   -7.0330  -12.1236    0.0000 Si  0  0  0  0  0  4  0  0  0  0  0  0
   -5.6235  -12.6366    0.0000 C   0  0  0  0  0  0  0  0  0  0  0  0
   -4.4744  -11.6724    0.0000 C   0  0  0  0  0  0  0  0  0  0  0  0
   -3.0648  -12.1855    0.0000 C   0  0  0  0  0  0  0  0  0  0  0  0
   -1.9158  -11.2213    0.0000 N   0  0  0  0  0  0  0  0  0  0  0  0
   -0.5062  -11.7343    0.0000 C   0  0  0  0  0  0  0  0  0  0  0  0
    0.6428  -10.7701    0.0000 C   0  0  0  0  0  0  0  0  0  0  0  0
    0.3824   -9.2929    0.0000 O   0  0  0  0  0  0  0  0  0  0  0  0
    2.0524  -11.2832    0.0000 C   0  0  0  0  0  0  0  0  0  0  0  0
    3.2014  -10.3190    0.0000 N   0  0  0  0  0  0  0  0  0  0  0  0
    2.9410   -8.8418    0.0000 C   0  0  0  0  0  0  0  0  0  0  0  0
    1.5314   -8.3287    0.0000 O   0  0  0  0  0  0  0  0  0  0  0  0
    4.0900   -7.8776    0.0000 N   0  0  0  0  0  0  0  0  0  0  0  0
    3.8296   -6.4004    0.0000 C   0  0  0  0  0  0  0  0  0  0  0  0
    2.4200   -5.8874    0.0000 C   0  0  0  0  0  0  0  0  0  0  0  0
    1.2709   -6.8515    0.0000 O   0  0  0  0  0  0  0  0  0  0  0  0
    2.1595   -4.4101    0.0000 C   0  0  0  0  0  0  0  0  0  0  0  0
    0.7500   -3.8971    0.0000 P   0  0  0  0  0  0  0  0  0  0  0  0
    0.4895   -5.3743    0.0000 O   0  0  0  0  0  0  0  0  0  0  0  0
    1.5000   -2.5981    0.0000 O   0  0  0  0  0  0  0  0  0  0  0  0
    0.7500   -1.2990    0.0000 C   0  0  0  0  0  0  0  0  0  0  0  0
    1.5000    0.0000    0.0000 C   0  0  0  0  0  0  0  0  0  0  0  0
    0.7500    1.2990    0.0000 C   0  0  0  0  0  0  0  0  0  0  0  0
   -0.7500    1.2990    0.0000 C   0  0  0  0  0  0  0  0  0  0  0  0
   -1.5000    0.0000    0.0000 C   0  0  0  0  0  0  0  0  0  0  0  0
   -0.7500   -1.2990    0.0000 C   0  0  0  0  0  0  0  0  0  0  0  0
   -1.5000   -2.5981    0.0000 C   0  0  0  0  0  0  0  0  0  0  0  0
   -3.0000   -2.5981    0.0000 C   0  0  0  0  0  0  0  0  0  0  0  0
   -3.7500   -3.8971    0.0000 C   0  0  0  0  0  0  0  0  0  0  0  0
   -3.0000   -5.1962    0.0000 C   0  0  0  0  0  0  0  0  0  0  0  0
   -1.5000   -5.1962    0.0000 C   0  0  0  0  0  0  0  0  0  0  0  0
   -0.7500   -3.8971    0.0000 C   0  0  0  0  0  0  0  0  0  0  0  0
    5.4996   -8.3906    0.0000 C   0  0  0  0  0  0  0  0  0  0  0  0
    6.6486   -7.4264    0.0000 O   0  0  0  0  0  0  0  0  0  0  0  0
    5.7600   -9.8678    0.0000 N   0  0  0  0  0  0  0  0  0  0  0  0
    7.1696  -10.3809    0.0000 C   0  0  0  0  0  0  0  0  0  0  0  0
    7.4300  -11.8581    0.0000 C   0  0  0  0  0  0  0  0  0  0  0  0
    8.8396  -12.3711    0.0000 C   0  0  0  0  0  0  0  0  0  0  0  0
    9.1001  -13.8483    0.0000 N   0  0  0  0  0  0  0  0  0  0  0  0
   10.5096  -14.3614    0.0000 C   0  0  0  0  0  0  0  0  0  0  0  0
   10.7701  -15.8386    0.0000 C   0  0  0  0  0  0  0  0  0  0  0  0
   12.1796  -16.3516    0.0000 C   0  0  0  0  0  0  0  0  0  0  0  0
   12.4401  -17.8288    0.0000 Si  0  0  0  0  0  4  0  0  0  0  0  0
   12.7006  -19.3060    0.0000 O   0  0  0  0  0  0  0  0  0  0  0  0
   11.5515  -20.2702    0.0000 C   0  0  0  0  0  0  0  0  0  0  0  0
   11.8120  -21.7474    0.0000 C   0  0  0  0  0  0  0  0  0  0  0  0
   13.9173  -17.5683    0.0000 O   0  0  0  0  0  0  0  0  0  0  0  0
   14.8815  -18.7174    0.0000 C   0  0  0  0  0  0  0  0  0  0  0  0
   16.3587  -18.4569    0.0000 C   0  0  0  0  0  0  0  0  0  0  0  0
   10.9629  -18.0893    0.0000 O   0  0  0  0  0  0  0  0  0  0  0  0
   10.4498  -19.4988    0.0000 C   0  0  0  0  0  0  0  0  0  0  0  0
    8.9726  -19.7593    0.0000 C   0  0  0  0  0  0  0  0  0  0  0  0
    6.2810  -12.8223    0.0000 O   0  0  0  0  0  0  0  0  0  0  0  0
    6.5415  -14.2995    0.0000 C   0  0  0  0  0  0  0  0  0  0  0  0
    5.3924  -15.2637    0.0000 C   0  0  0  0  0  0  0  0  0  0  0  0
    4.8794  -16.6732    0.0000 C   0  0  0  0  0  0  0  0  0  0  0  0
    3.9152  -15.5241    0.0000 O   0  0  0  0  0  0  0  0  0  0  0  0
    4.6110  -10.8320    0.0000 C   0  0  0  0  0  0  0  0  0  0  0  0
    4.8714  -12.3092    0.0000 O   0  0  0  0  0  0  0  0  0  0  0  0
   -7.5460  -13.5331    0.0000 O   0  0  0  0  0  0  0  0  0  0  0  0
   -9.0232  -13.7936    0.0000 C   0  0  0  0  0  0  0  0  0  0  0  0
   -9.5363  -15.2031    0.0000 C   0  0  0  0  0  0  0  0  0  0  0  0
   -6.5200  -10.7141    0.0000 O   0  0  0  0  0  0  0  0  0  0  0  0
   -7.4841   -9.5650    0.0000 C   0  0  0  0  0  0  0  0  0  0  0  0
   -6.9711   -8.1555    0.0000 C   0  0  0  0  0  0  0  0  0  0  0  0
  1  2  1  0
  2  3  1  0
  3  4  1  0
  4  5  1  0
  5  6  1  0
  6  7  1  0
  7  8  1  0
  8  9  1  0
  9 10  1  0
 10 11  1  0
 10 12  1  0
 12 13  1  0
 13 14  1  0
 14 15  2  0
 14 16  1  0
 16 17  1  0
 17 18  1  0
 18 19  1  0
 18 20  1  0
 20 21  1  0
 21 22  2  0
 21 23  1  0
 23 24  1  0
 24 25  2  0
 25 26  1  0
 26 27  2  0
 27 28  1  0
 28 29  2  0
 29 30  1  0
 30 31  2  0
 31 32  1  0
 32 33  2  0
 33 34  1  0
 34 35  2  0
 16 36  1  0
 36 37  2  0
 36 38  1  0
 38 39  1  0
 39 40  1  0
 40 41  1  0
 41 42  1  0
 42 43  1  0
 43 44  1  0
 44 45  1  0
 45 46  1  0
 46 47  1  0
 47 48  1  0
 48 49  1  0
 46 50  1  0
 50 51  1  0
 51 52  1  0
 46 53  1  0
 53 54  1  0
 54 55  1  0
 40 56  1  0
 56 57  1  0
 57 58  1  0
 58 59  1  0
 59 60  1  0
 38 61  1  0
 61 62  2  0
  4 63  1  0
 63 64  1  0
 64 65  1  0
  4 66  1  0
 66 67  1  0
 67 68  1  0
 61 13  1  0
 35 21  1  0
 60 58  1  0
 29 24  1  0
 35 30  1  0
M  END
>  <Candidate_ID>  (355) 
CAND_R2_355

>  <Candidate_Name>  (355) 
TDA-OH-glycidyl

>  <Parent_Seed_ID>  (355) 
TRAIN_010

>  <Parent_Name>  (355) 
TDA

>  <Transformation_Code>  (355) 
OH_glycidyl

>  <Design_Family>  (355) 
P-N-Si

>  <Preparation_Type>  (355) 
Co-curing

>  <Synthesis_Level>  (355) 
B

>  <Parent_Tanimoto_r3>  (355) 
0.7924528301886793

>  <Max_Train_Tanimoto_r3>  (355) 
0.7924528301886793

>  <Risk_Flags>  (355) 
none

$$$$
CAND_R2_356 | TDA-OH-glycidyl-2
     RDKit          2D

 68 72  0  0  0  0  0  0  0  0999 V2000
   11.8120  -21.7474    0.0000 C   0  0  0  0  0  0  0  0  0  0  0  0
   11.5515  -20.2702    0.0000 C   0  0  0  0  0  0  0  0  0  0  0  0
   12.7006  -19.3060    0.0000 O   0  0  0  0  0  0  0  0  0  0  0  0
   12.4401  -17.8288    0.0000 Si  0  0  0  0  0  4  0  0  0  0  0  0
   12.1796  -16.3516    0.0000 C   0  0  0  0  0  0  0  0  0  0  0  0
   10.7701  -15.8386    0.0000 C   0  0  0  0  0  0  0  0  0  0  0  0
   10.5096  -14.3614    0.0000 C   0  0  0  0  0  0  0  0  0  0  0  0
    9.1001  -13.8483    0.0000 N   0  0  0  0  0  0  0  0  0  0  0  0
    8.8396  -12.3711    0.0000 C   0  0  0  0  0  0  0  0  0  0  0  0
    7.4300  -11.8581    0.0000 C   0  0  0  0  0  0  0  0  0  0  0  0
    6.2810  -12.8223    0.0000 O   0  0  0  0  0  0  0  0  0  0  0  0
    7.1696  -10.3809    0.0000 C   0  0  0  0  0  0  0  0  0  0  0  0
    5.7600   -9.8678    0.0000 N   0  0  0  0  0  0  0  0  0  0  0  0
    4.6110  -10.8320    0.0000 C   0  0  0  0  0  0  0  0  0  0  0  0
    4.8714  -12.3092    0.0000 O   0  0  0  0  0  0  0  0  0  0  0  0
    3.2014  -10.3190    0.0000 N   0  0  0  0  0  0  0  0  0  0  0  0
    2.0524  -11.2832    0.0000 C   0  0  0  0  0  0  0  0  0  0  0  0
    0.6428  -10.7701    0.0000 C   0  0  0  0  0  0  0  0  0  0  0  0
    0.3824   -9.2929    0.0000 O   0  0  0  0  0  0  0  0  0  0  0  0
   -0.5062  -11.7343    0.0000 C   0  0  0  0  0  0  0  0  0  0  0  0
   -1.9158  -11.2213    0.0000 N   0  0  0  0  0  0  0  0  0  0  0  0
   -3.0648  -12.1855    0.0000 C   0  0  0  0  0  0  0  0  0  0  0  0
   -4.4744  -11.6724    0.0000 C   0  0  0  0  0  0  0  0  0  0  0  0
   -5.6235  -12.6366    0.0000 C   0  0  0  0  0  0  0  0  0  0  0  0
   -7.0330  -12.1236    0.0000 Si  0  0  0  0  0  4  0  0  0  0  0  0
   -8.4425  -11.6106    0.0000 O   0  0  0  0  0  0  0  0  0  0  0  0
   -8.7030  -10.1334    0.0000 C   0  0  0  0  0  0  0  0  0  0  0  0
  -10.1125   -9.6203    0.0000 C   0  0  0  0  0  0  0  0  0  0  0  0
   -7.5460  -13.5331    0.0000 O   0  0  0  0  0  0  0  0  0  0  0  0
   -9.0232  -13.7936    0.0000 C   0  0  0  0  0  0  0  0  0  0  0  0
   -9.5363  -15.2031    0.0000 C   0  0  0  0  0  0  0  0  0  0  0  0
   -6.5200  -10.7141    0.0000 O   0  0  0  0  0  0  0  0  0  0  0  0
   -7.4841   -9.5650    0.0000 C   0  0  0  0  0  0  0  0  0  0  0  0
   -6.9711   -8.1555    0.0000 C   0  0  0  0  0  0  0  0  0  0  0  0
    2.9410   -8.8418    0.0000 C   0  0  0  0  0  0  0  0  0  0  0  0
    1.5314   -8.3287    0.0000 O   0  0  0  0  0  0  0  0  0  0  0  0
    4.0900   -7.8776    0.0000 N   0  0  0  0  0  0  0  0  0  0  0  0
    3.8296   -6.4004    0.0000 C   0  0  0  0  0  0  0  0  0  0  0  0
    2.4200   -5.8874    0.0000 C   0  0  0  0  0  0  0  0  0  0  0  0
    2.1595   -4.4101    0.0000 C   0  0  0  0  0  0  0  0  0  0  0  0
    0.7500   -3.8971    0.0000 P   0  0  0  0  0  0  0  0  0  0  0  0
    0.4895   -5.3743    0.0000 O   0  0  0  0  0  0  0  0  0  0  0  0
    1.5000   -2.5981    0.0000 O   0  0  0  0  0  0  0  0  0  0  0  0
    0.7500   -1.2990    0.0000 C   0  0  0  0  0  0  0  0  0  0  0  0
    1.5000    0.0000    0.0000 C   0  0  0  0  0  0  0  0  0  0  0  0
    0.7500    1.2990    0.0000 C   0  0  0  0  0  0  0  0  0  0  0  0
   -0.7500    1.2990    0.0000 C   0  0  0  0  0  0  0  0  0  0  0  0
   -1.5000    0.0000    0.0000 C   0  0  0  0  0  0  0  0  0  0  0  0
   -0.7500   -1.2990    0.0000 C   0  0  0  0  0  0  0  0  0  0  0  0
   -1.5000   -2.5981    0.0000 C   0  0  0  0  0  0  0  0  0  0  0  0
   -3.0000   -2.5981    0.0000 C   0  0  0  0  0  0  0  0  0  0  0  0
   -3.7500   -3.8971    0.0000 C   0  0  0  0  0  0  0  0  0  0  0  0
   -3.0000   -5.1962    0.0000 C   0  0  0  0  0  0  0  0  0  0  0  0
   -1.5000   -5.1962    0.0000 C   0  0  0  0  0  0  0  0  0  0  0  0
   -0.7500   -3.8971    0.0000 C   0  0  0  0  0  0  0  0  0  0  0  0
    1.2709   -6.8515    0.0000 O   0  0  0  0  0  0  0  0  0  0  0  0
   -0.1386   -6.3385    0.0000 C   0  0  0  0  0  0  0  0  0  0  0  0
   -1.2877   -7.3027    0.0000 C   0  0  0  0  0  0  0  0  0  0  0  0
   -2.7649   -7.5632    0.0000 C   0  0  0  0  0  0  0  0  0  0  0  0
   -1.8007   -8.7122    0.0000 O   0  0  0  0  0  0  0  0  0  0  0  0
    5.4996   -8.3906    0.0000 C   0  0  0  0  0  0  0  0  0  0  0  0
    6.6486   -7.4264    0.0000 O   0  0  0  0  0  0  0  0  0  0  0  0
   13.9173  -17.5683    0.0000 O   0  0  0  0  0  0  0  0  0  0  0  0
   14.8815  -18.7174    0.0000 C   0  0  0  0  0  0  0  0  0  0  0  0
   16.3587  -18.4569    0.0000 C   0  0  0  0  0  0  0  0  0  0  0  0
   10.9629  -18.0893    0.0000 O   0  0  0  0  0  0  0  0  0  0  0  0
   10.4498  -19.4988    0.0000 C   0  0  0  0  0  0  0  0  0  0  0  0
    8.9726  -19.7593    0.0000 C   0  0  0  0  0  0  0  0  0  0  0  0
  1  2  1  0
  2  3  1  0
  3  4  1  0
  4  5  1  0
  5  6  1  0
  6  7  1  0
  7  8  1  0
  8  9  1  0
  9 10  1  0
 10 11  1  0
 10 12  1  0
 12 13  1  0
 13 14  1  0
 14 15  2  0
 14 16  1  0
 16 17  1  0
 17 18  1  0
 18 19  1  0
 18 20  1  0
 20 21  1  0
 21 22  1  0
 22 23  1  0
 23 24  1  0
 24 25  1  0
 25 26  1  0
 26 27  1  0
 27 28  1  0
 25 29  1  0
 29 30  1  0
 30 31  1  0
 25 32  1  0
 32 33  1  0
 33 34  1  0
 16 35  1  0
 35 36  2  0
 35 37  1  0
 37 38  1  0
 38 39  1  0
 39 40  1  0
 40 41  1  0
 41 42  2  0
 41 43  1  0
 43 44  1  0
 44 45  2  0
 45 46  1  0
 46 47  2  0
 47 48  1  0
 48 49  2  0
 49 50  1  0
 50 51  2  0
 51 52  1  0
 52 53  2  0
 53 54  1  0
 54 55  2  0
 39 56  1  0
 56 57  1  0
 57 58  1  0
 58 59  1  0
 59 60  1  0
 37 61  1  0
 61 62  2  0
  4 63  1  0
 63 64  1  0
 64 65  1  0
  4 66  1  0
 66 67  1  0
 67 68  1  0
 61 13  1  0
 55 41  1  0
 60 58  1  0
 49 44  1  0
 55 50  1  0
M  END
>  <Candidate_ID>  (356) 
CAND_R2_356

>  <Candidate_Name>  (356) 
TDA-OH-glycidyl-2

>  <Parent_Seed_ID>  (356) 
TRAIN_010

>  <Parent_Name>  (356) 
TDA

>  <Transformation_Code>  (356) 
OH_glycidyl

>  <Design_Family>  (356) 
P-N-Si

>  <Preparation_Type>  (356) 
Co-curing

>  <Synthesis_Level>  (356) 
B

>  <Parent_Tanimoto_r3>  (356) 
0.7428571428571429

>  <Max_Train_Tanimoto_r3>  (356) 
0.7428571428571429

>  <Risk_Flags>  (356) 
none

$$$$
CAND_R2_357 | TDA-OH-glycidyl-all
     RDKit          2D

 76 82  0  0  0  0  0  0  0  0999 V2000
    1.5775  -23.5520    0.0000 C   0  0  0  0  0  0  0  0  0  0  0  0
    1.3171  -22.0748    0.0000 C   0  0  0  0  0  0  0  0  0  0  0  0
   -0.0925  -21.5618    0.0000 O   0  0  0  0  0  0  0  0  0  0  0  0
   -0.3529  -20.0846    0.0000 Si  0  0  0  0  0  4  0  0  0  0  0  0
   -0.6134  -18.6074    0.0000 C   0  0  0  0  0  0  0  0  0  0  0  0
    0.5356  -17.6432    0.0000 C   0  0  0  0  0  0  0  0  0  0  0  0
    0.2752  -16.1660    0.0000 C   0  0  0  0  0  0  0  0  0  0  0  0
    1.4242  -15.2018    0.0000 N   0  0  0  0  0  0  0  0  0  0  0  0
    1.1638  -13.7246    0.0000 C   0  0  0  0  0  0  0  0  0  0  0  0
    2.3128  -12.7604    0.0000 C   0  0  0  0  0  0  0  0  0  0  0  0
    2.0524  -11.2832    0.0000 C   0  0  0  0  0  0  0  0  0  0  0  0
    3.2014  -10.3190    0.0000 N   0  0  0  0  0  0  0  0  0  0  0  0
    4.6110  -10.8320    0.0000 C   0  0  0  0  0  0  0  0  0  0  0  0
    4.8714  -12.3092    0.0000 O   0  0  0  0  0  0  0  0  0  0  0  0
    5.7600   -9.8678    0.0000 N   0  0  0  0  0  0  0  0  0  0  0  0
    7.1696  -10.3809    0.0000 C   0  0  0  0  0  0  0  0  0  0  0  0
    8.3186   -9.4167    0.0000 C   0  0  0  0  0  0  0  0  0  0  0  0
    9.7282   -9.9297    0.0000 C   0  0  0  0  0  0  0  0  0  0  0  0
   10.8772   -8.9655    0.0000 N   0  0  0  0  0  0  0  0  0  0  0  0
   12.2868   -9.4786    0.0000 C   0  0  0  0  0  0  0  0  0  0  0  0
   13.4359   -8.5144    0.0000 C   0  0  0  0  0  0  0  0  0  0  0  0
   14.8454   -9.0274    0.0000 C   0  0  0  0  0  0  0  0  0  0  0  0
   15.9945   -8.0632    0.0000 Si  0  0  0  0  0  4  0  0  0  0  0  0
   17.1435   -7.0991    0.0000 O   0  0  0  0  0  0  0  0  0  0  0  0
   16.8831   -5.6218    0.0000 C   0  0  0  0  0  0  0  0  0  0  0  0
   18.0321   -4.6577    0.0000 C   0  0  0  0  0  0  0  0  0  0  0  0
   16.9586   -9.2123    0.0000 O   0  0  0  0  0  0  0  0  0  0  0  0
   18.4358   -8.9518    0.0000 C   0  0  0  0  0  0  0  0  0  0  0  0
   19.4000  -10.1009    0.0000 C   0  0  0  0  0  0  0  0  0  0  0  0
   15.0303   -6.9142    0.0000 O   0  0  0  0  0  0  0  0  0  0  0  0
   15.5433   -5.5046    0.0000 C   0  0  0  0  0  0  0  0  0  0  0  0
   14.5791   -4.3556    0.0000 C   0  0  0  0  0  0  0  0  0  0  0  0
    8.0582   -7.9395    0.0000 O   0  0  0  0  0  0  0  0  0  0  0  0
    9.2072   -6.9753    0.0000 C   0  0  0  0  0  0  0  0  0  0  0  0
    8.9468   -5.4981    0.0000 C   0  0  0  0  0  0  0  0  0  0  0  0
    7.9826   -4.3490    0.0000 C   0  0  0  0  0  0  0  0  0  0  0  0
    9.4598   -4.0885    0.0000 O   0  0  0  0  0  0  0  0  0  0  0  0
    5.4996   -8.3906    0.0000 C   0  0  0  0  0  0  0  0  0  0  0  0
    6.6486   -7.4264    0.0000 O   0  0  0  0  0  0  0  0  0  0  0  0
    4.0900   -7.8776    0.0000 N   0  0  0  0  0  0  0  0  0  0  0  0
    3.8296   -6.4004    0.0000 C   0  0  0  0  0  0  0  0  0  0  0  0
    2.4200   -5.8874    0.0000 C   0  0  0  0  0  0  0  0  0  0  0  0
    1.2709   -6.8515    0.0000 C   0  0  0  0  0  0  0  0  0  0  0  0
   -0.1386   -6.3385    0.0000 P   0  0  0  0  0  0  0  0  0  0  0  0
    0.6114   -5.0395    0.0000 O   0  0  0  0  0  0  0  0  0  0  0  0
   -0.3991   -7.8157    0.0000 O   0  0  0  0  0  0  0  0  0  0  0  0
   -1.8086   -8.3287    0.0000 C   0  0  0  0  0  0  0  0  0  0  0  0
   -2.0691   -9.8060    0.0000 C   0  0  0  0  0  0  0  0  0  0  0  0
   -3.4786  -10.3190    0.0000 C   0  0  0  0  0  0  0  0  0  0  0  0
   -4.6277   -9.3548    0.0000 C   0  0  0  0  0  0  0  0  0  0  0  0
   -4.3672   -7.8776    0.0000 C   0  0  0  0  0  0  0  0  0  0  0  0
   -2.9577   -7.3646    0.0000 C   0  0  0  0  0  0  0  0  0  0  0  0
   -2.6972   -5.8874    0.0000 C   0  0  0  0  0  0  0  0  0  0  0  0
   -3.8463   -4.9232    0.0000 C   0  0  0  0  0  0  0  0  0  0  0  0
   -3.5858   -3.4460    0.0000 C   0  0  0  0  0  0  0  0  0  0  0  0
   -2.1763   -2.9329    0.0000 C   0  0  0  0  0  0  0  0  0  0  0  0
   -1.0272   -3.8971    0.0000 C   0  0  0  0  0  0  0  0  0  0  0  0
   -1.2877   -5.3743    0.0000 C   0  0  0  0  0  0  0  0  0  0  0  0
    2.1595   -4.4101    0.0000 O   0  0  0  0  0  0  0  0  0  0  0  0
    3.3086   -3.4460    0.0000 C   0  0  0  0  0  0  0  0  0  0  0  0
    3.0481   -1.9688    0.0000 C   0  0  0  0  0  0  0  0  0  0  0  0
    3.5612   -0.5592    0.0000 C   0  0  0  0  0  0  0  0  0  0  0  0
    2.0840   -0.8197    0.0000 O   0  0  0  0  0  0  0  0  0  0  0  0
    2.9410   -8.8418    0.0000 C   0  0  0  0  0  0  0  0  0  0  0  0
    1.5314   -8.3287    0.0000 O   0  0  0  0  0  0  0  0  0  0  0  0
    3.7224  -13.2734    0.0000 O   0  0  0  0  0  0  0  0  0  0  0  0
    3.9828  -14.7506    0.0000 C   0  0  0  0  0  0  0  0  0  0  0  0
    5.3924  -15.2637    0.0000 C   0  0  0  0  0  0  0  0  0  0  0  0
    6.8696  -15.0032    0.0000 C   0  0  0  0  0  0  0  0  0  0  0  0
    6.3566  -16.4127    0.0000 O   0  0  0  0  0  0  0  0  0  0  0  0
   -1.8302  -20.3450    0.0000 O   0  0  0  0  0  0  0  0  0  0  0  0
   -2.3432  -21.7546    0.0000 C   0  0  0  0  0  0  0  0  0  0  0  0
   -3.8204  -22.0150    0.0000 C   0  0  0  0  0  0  0  0  0  0  0  0
    1.1243  -19.8241    0.0000 O   0  0  0  0  0  0  0  0  0  0  0  0
    2.0884  -20.9732    0.0000 C   0  0  0  0  0  0  0  0  0  0  0  0
    3.5657  -20.7127    0.0000 C   0  0  0  0  0  0  0  0  0  0  0  0
  1  2  1  0
  2  3  1  0
  3  4  1  0
  4  5  1  0
  5  6  1  0
  6  7  1  0
  7  8  1  0
  8  9  1  0
  9 10  1  0
 10 11  1  0
 11 12  1  0
 12 13  1  0
 13 14  2  0
 13 15  1  0
 15 16  1  0
 16 17  1  0
 17 18  1  0
 18 19  1  0
 19 20  1  0
 20 21  1  0
 21 22  1  0
 22 23  1  0
 23 24  1  0
 24 25  1  0
 25 26  1  0
 23 27  1  0
 27 28  1  0
 28 29  1  0
 23 30  1  0
 30 31  1  0
 31 32  1  0
 17 33  1  0
 33 34  1  0
 34 35  1  0
 35 36  1  0
 36 37  1  0
 15 38  1  0
 38 39  2  0
 38 40  1  0
 40 41  1  0
 41 42  1  0
 42 43  1  0
 43 44  1  0
 44 45  2  0
 44 46  1  0
 46 47  1  0
 47 48  2  0
 48 49  1  0
 49 50  2  0
 50 51  1  0
 51 52  2  0
 52 53  1  0
 53 54  2  0
 54 55  1  0
 55 56  2  0
 56 57  1  0
 57 58  2  0
 42 59  1  0
 59 60  1  0
 60 61  1  0
 61 62  1  0
 62 63  1  0
 40 64  1  0
 64 65  2  0
 10 66  1  0
 66 67  1  0
 67 68  1  0
 68 69  1  0
 69 70  1  0
  4 71  1  0
 71 72  1  0
 72 73  1  0
  4 74  1  0
 74 75  1  0
 75 76  1  0
 64 12  1  0
 70 68  1  0
 37 35  1  0
 58 44  1  0
 63 61  1  0
 52 47  1  0
 58 53  1  0
M  END
>  <Candidate_ID>  (357) 
CAND_R2_357

>  <Candidate_Name>  (357) 
TDA-OH-glycidyl-all

>  <Parent_Seed_ID>  (357) 
TRAIN_010

>  <Parent_Name>  (357) 
TDA

>  <Transformation_Code>  (357) 
OH_glycidyl_all

>  <Design_Family>  (357) 
P-N-Si

>  <Preparation_Type>  (357) 
Co-curing

>  <Synthesis_Level>  (357) 
B

>  <Parent_Tanimoto_r3>  (357) 
0.6160714285714286

>  <Max_Train_Tanimoto_r3>  (357) 
0.6160714285714286

>  <Risk_Flags>  (357) 
large structural change from parent; candidate may be outside strict in-domain threshold

$$$$
CAND_R2_358 | TDA-OH-methyl
     RDKit          2D

 65 68  0  0  0  0  0  0  0  0999 V2000
  -10.1125   -9.6203    0.0000 C   0  0  0  0  0  0  0  0  0  0  0  0
   -8.7030  -10.1334    0.0000 C   0  0  0  0  0  0  0  0  0  0  0  0
   -8.4425  -11.6106    0.0000 O   0  0  0  0  0  0  0  0  0  0  0  0
   -7.0330  -12.1236    0.0000 Si  0  0  0  0  0  4  0  0  0  0  0  0
   -5.6235  -12.6366    0.0000 C   0  0  0  0  0  0  0  0  0  0  0  0
   -4.4744  -11.6724    0.0000 C   0  0  0  0  0  0  0  0  0  0  0  0
   -3.0648  -12.1855    0.0000 C   0  0  0  0  0  0  0  0  0  0  0  0
   -1.9158  -11.2213    0.0000 N   0  0  0  0  0  0  0  0  0  0  0  0
   -0.5062  -11.7343    0.0000 C   0  0  0  0  0  0  0  0  0  0  0  0
    0.6428  -10.7701    0.0000 C   0  0  0  0  0  0  0  0  0  0  0  0
    0.3824   -9.2929    0.0000 O   0  0  0  0  0  0  0  0  0  0  0  0
    2.0524  -11.2832    0.0000 C   0  0  0  0  0  0  0  0  0  0  0  0
    3.2014  -10.3190    0.0000 N   0  0  0  0  0  0  0  0  0  0  0  0
    2.9410   -8.8418    0.0000 C   0  0  0  0  0  0  0  0  0  0  0  0
    1.5314   -8.3287    0.0000 O   0  0  0  0  0  0  0  0  0  0  0  0
    4.0900   -7.8776    0.0000 N   0  0  0  0  0  0  0  0  0  0  0  0
    3.8296   -6.4004    0.0000 C   0  0  0  0  0  0  0  0  0  0  0  0
    2.4200   -5.8874    0.0000 C   0  0  0  0  0  0  0  0  0  0  0  0
    1.2709   -6.8515    0.0000 O   0  0  0  0  0  0  0  0  0  0  0  0
    2.1595   -4.4101    0.0000 C   0  0  0  0  0  0  0  0  0  0  0  0
    0.7500   -3.8971    0.0000 P   0  0  0  0  0  0  0  0  0  0  0  0
    0.4895   -5.3743    0.0000 O   0  0  0  0  0  0  0  0  0  0  0  0
    1.5000   -2.5981    0.0000 O   0  0  0  0  0  0  0  0  0  0  0  0
    0.7500   -1.2990    0.0000 C   0  0  0  0  0  0  0  0  0  0  0  0
    1.5000    0.0000    0.0000 C   0  0  0  0  0  0  0  0  0  0  0  0
    0.7500    1.2990    0.0000 C   0  0  0  0  0  0  0  0  0  0  0  0
   -0.7500    1.2990    0.0000 C   0  0  0  0  0  0  0  0  0  0  0  0
   -1.5000    0.0000    0.0000 C   0  0  0  0  0  0  0  0  0  0  0  0
   -0.7500   -1.2990    0.0000 C   0  0  0  0  0  0  0  0  0  0  0  0
   -1.5000   -2.5981    0.0000 C   0  0  0  0  0  0  0  0  0  0  0  0
   -3.0000   -2.5981    0.0000 C   0  0  0  0  0  0  0  0  0  0  0  0
   -3.7500   -3.8971    0.0000 C   0  0  0  0  0  0  0  0  0  0  0  0
   -3.0000   -5.1962    0.0000 C   0  0  0  0  0  0  0  0  0  0  0  0
   -1.5000   -5.1962    0.0000 C   0  0  0  0  0  0  0  0  0  0  0  0
   -0.7500   -3.8971    0.0000 C   0  0  0  0  0  0  0  0  0  0  0  0
    5.4996   -8.3906    0.0000 C   0  0  0  0  0  0  0  0  0  0  0  0
    6.6486   -7.4264    0.0000 O   0  0  0  0  0  0  0  0  0  0  0  0
    5.7600   -9.8678    0.0000 N   0  0  0  0  0  0  0  0  0  0  0  0
    7.1696  -10.3809    0.0000 C   0  0  0  0  0  0  0  0  0  0  0  0
    7.4300  -11.8581    0.0000 C   0  0  0  0  0  0  0  0  0  0  0  0
    8.8396  -12.3711    0.0000 C   0  0  0  0  0  0  0  0  0  0  0  0
    9.1001  -13.8483    0.0000 N   0  0  0  0  0  0  0  0  0  0  0  0
   10.5096  -14.3614    0.0000 C   0  0  0  0  0  0  0  0  0  0  0  0
   10.7701  -15.8386    0.0000 C   0  0  0  0  0  0  0  0  0  0  0  0
   12.1796  -16.3516    0.0000 C   0  0  0  0  0  0  0  0  0  0  0  0
   12.4401  -17.8288    0.0000 Si  0  0  0  0  0  4  0  0  0  0  0  0
   12.7006  -19.3060    0.0000 O   0  0  0  0  0  0  0  0  0  0  0  0
   11.5515  -20.2702    0.0000 C   0  0  0  0  0  0  0  0  0  0  0  0
   11.8120  -21.7474    0.0000 C   0  0  0  0  0  0  0  0  0  0  0  0
   13.9173  -17.5683    0.0000 O   0  0  0  0  0  0  0  0  0  0  0  0
   14.8815  -18.7174    0.0000 C   0  0  0  0  0  0  0  0  0  0  0  0
   16.3587  -18.4569    0.0000 C   0  0  0  0  0  0  0  0  0  0  0  0
   10.9629  -18.0893    0.0000 O   0  0  0  0  0  0  0  0  0  0  0  0
   10.4498  -19.4988    0.0000 C   0  0  0  0  0  0  0  0  0  0  0  0
    8.9726  -19.7593    0.0000 C   0  0  0  0  0  0  0  0  0  0  0  0
    6.2810  -12.8223    0.0000 O   0  0  0  0  0  0  0  0  0  0  0  0
    6.5415  -14.2995    0.0000 C   0  0  0  0  0  0  0  0  0  0  0  0
    4.6110  -10.8320    0.0000 C   0  0  0  0  0  0  0  0  0  0  0  0
    4.8714  -12.3092    0.0000 O   0  0  0  0  0  0  0  0  0  0  0  0
   -7.5460  -13.5331    0.0000 O   0  0  0  0  0  0  0  0  0  0  0  0
   -9.0232  -13.7936    0.0000 C   0  0  0  0  0  0  0  0  0  0  0  0
   -9.5363  -15.2031    0.0000 C   0  0  0  0  0  0  0  0  0  0  0  0
   -6.5200  -10.7141    0.0000 O   0  0  0  0  0  0  0  0  0  0  0  0
   -7.4841   -9.5650    0.0000 C   0  0  0  0  0  0  0  0  0  0  0  0
   -6.9711   -8.1555    0.0000 C   0  0  0  0  0  0  0  0  0  0  0  0
  1  2  1  0
  2  3  1  0
  3  4  1  0
  4  5  1  0
  5  6  1  0
  6  7  1  0
  7  8  1  0
  8  9  1  0
  9 10  1  0
 10 11  1  0
 10 12  1  0
 12 13  1  0
 13 14  1  0
 14 15  2  0
 14 16  1  0
 16 17  1  0
 17 18  1  0
 18 19  1  0
 18 20  1  0
 20 21  1  0
 21 22  2  0
 21 23  1  0
 23 24  1  0
 24 25  2  0
 25 26  1  0
 26 27  2  0
 27 28  1  0
 28 29  2  0
 29 30  1  0
 30 31  2  0
 31 32  1  0
 32 33  2  0
 33 34  1  0
 34 35  2  0
 16 36  1  0
 36 37  2  0
 36 38  1  0
 38 39  1  0
 39 40  1  0
 40 41  1  0
 41 42  1  0
 42 43  1  0
 43 44  1  0
 44 45  1  0
 45 46  1  0
 46 47  1  0
 47 48  1  0
 48 49  1  0
 46 50  1  0
 50 51  1  0
 51 52  1  0
 46 53  1  0
 53 54  1  0
 54 55  1  0
 40 56  1  0
 56 57  1  0
 38 58  1  0
 58 59  2  0
  4 60  1  0
 60 61  1  0
 61 62  1  0
  4 63  1  0
 63 64  1  0
 64 65  1  0
 58 13  1  0
 35 21  1  0
 29 24  1  0
 35 30  1  0
M  END
>  <Candidate_ID>  (358) 
CAND_R2_358

>  <Candidate_Name>  (358) 
TDA-OH-methyl

>  <Parent_Seed_ID>  (358) 
TRAIN_010

>  <Parent_Name>  (358) 
TDA

>  <Transformation_Code>  (358) 
OH_methyl

>  <Design_Family>  (358) 
P-N-Si

>  <Preparation_Type>  (358) 
Additive

>  <Synthesis_Level>  (358) 
B

>  <Parent_Tanimoto_r3>  (358) 
0.875

>  <Max_Train_Tanimoto_r3>  (358) 
0.875

>  <Risk_Flags>  (358) 
none

$$$$
CAND_R2_359 | TDA-OH-methyl-2
     RDKit          2D

 65 68  0  0  0  0  0  0  0  0999 V2000
   11.8120  -21.7474    0.0000 C   0  0  0  0  0  0  0  0  0  0  0  0
   11.5515  -20.2702    0.0000 C   0  0  0  0  0  0  0  0  0  0  0  0
   12.7006  -19.3060    0.0000 O   0  0  0  0  0  0  0  0  0  0  0  0
   12.4401  -17.8288    0.0000 Si  0  0  0  0  0  4  0  0  0  0  0  0
   12.1796  -16.3516    0.0000 C   0  0  0  0  0  0  0  0  0  0  0  0
   10.7701  -15.8386    0.0000 C   0  0  0  0  0  0  0  0  0  0  0  0
   10.5096  -14.3614    0.0000 C   0  0  0  0  0  0  0  0  0  0  0  0
    9.1001  -13.8483    0.0000 N   0  0  0  0  0  0  0  0  0  0  0  0
    8.8396  -12.3711    0.0000 C   0  0  0  0  0  0  0  0  0  0  0  0
    7.4300  -11.8581    0.0000 C   0  0  0  0  0  0  0  0  0  0  0  0
    6.2810  -12.8223    0.0000 O   0  0  0  0  0  0  0  0  0  0  0  0
    7.1696  -10.3809    0.0000 C   0  0  0  0  0  0  0  0  0  0  0  0
    5.7600   -9.8678    0.0000 N   0  0  0  0  0  0  0  0  0  0  0  0
    4.6110  -10.8320    0.0000 C   0  0  0  0  0  0  0  0  0  0  0  0
    4.8714  -12.3092    0.0000 O   0  0  0  0  0  0  0  0  0  0  0  0
    3.2014  -10.3190    0.0000 N   0  0  0  0  0  0  0  0  0  0  0  0
    2.0524  -11.2832    0.0000 C   0  0  0  0  0  0  0  0  0  0  0  0
    0.6428  -10.7701    0.0000 C   0  0  0  0  0  0  0  0  0  0  0  0
    0.3824   -9.2929    0.0000 O   0  0  0  0  0  0  0  0  0  0  0  0
   -0.5062  -11.7343    0.0000 C   0  0  0  0  0  0  0  0  0  0  0  0
   -1.9158  -11.2213    0.0000 N   0  0  0  0  0  0  0  0  0  0  0  0
   -3.0648  -12.1855    0.0000 C   0  0  0  0  0  0  0  0  0  0  0  0
   -4.4744  -11.6724    0.0000 C   0  0  0  0  0  0  0  0  0  0  0  0
   -5.6235  -12.6366    0.0000 C   0  0  0  0  0  0  0  0  0  0  0  0
   -7.0330  -12.1236    0.0000 Si  0  0  0  0  0  4  0  0  0  0  0  0
   -8.4425  -11.6106    0.0000 O   0  0  0  0  0  0  0  0  0  0  0  0
   -8.7030  -10.1334    0.0000 C   0  0  0  0  0  0  0  0  0  0  0  0
  -10.1125   -9.6203    0.0000 C   0  0  0  0  0  0  0  0  0  0  0  0
   -7.5460  -13.5331    0.0000 O   0  0  0  0  0  0  0  0  0  0  0  0
   -9.0232  -13.7936    0.0000 C   0  0  0  0  0  0  0  0  0  0  0  0
   -9.5363  -15.2031    0.0000 C   0  0  0  0  0  0  0  0  0  0  0  0
   -6.5200  -10.7141    0.0000 O   0  0  0  0  0  0  0  0  0  0  0  0
   -7.4841   -9.5650    0.0000 C   0  0  0  0  0  0  0  0  0  0  0  0
   -6.9711   -8.1555    0.0000 C   0  0  0  0  0  0  0  0  0  0  0  0
    2.9410   -8.8418    0.0000 C   0  0  0  0  0  0  0  0  0  0  0  0
    1.5314   -8.3287    0.0000 O   0  0  0  0  0  0  0  0  0  0  0  0
    4.0900   -7.8776    0.0000 N   0  0  0  0  0  0  0  0  0  0  0  0
    3.8296   -6.4004    0.0000 C   0  0  0  0  0  0  0  0  0  0  0  0
    2.4200   -5.8874    0.0000 C   0  0  0  0  0  0  0  0  0  0  0  0
    2.1595   -4.4101    0.0000 C   0  0  0  0  0  0  0  0  0  0  0  0
    0.7500   -3.8971    0.0000 P   0  0  0  0  0  0  0  0  0  0  0  0
    0.4895   -5.3743    0.0000 O   0  0  0  0  0  0  0  0  0  0  0  0
    1.5000   -2.5981    0.0000 O   0  0  0  0  0  0  0  0  0  0  0  0
    0.7500   -1.2990    0.0000 C   0  0  0  0  0  0  0  0  0  0  0  0
    1.5000    0.0000    0.0000 C   0  0  0  0  0  0  0  0  0  0  0  0
    0.7500    1.2990    0.0000 C   0  0  0  0  0  0  0  0  0  0  0  0
   -0.7500    1.2990    0.0000 C   0  0  0  0  0  0  0  0  0  0  0  0
   -1.5000    0.0000    0.0000 C   0  0  0  0  0  0  0  0  0  0  0  0
   -0.7500   -1.2990    0.0000 C   0  0  0  0  0  0  0  0  0  0  0  0
   -1.5000   -2.5981    0.0000 C   0  0  0  0  0  0  0  0  0  0  0  0
   -3.0000   -2.5981    0.0000 C   0  0  0  0  0  0  0  0  0  0  0  0
   -3.7500   -3.8971    0.0000 C   0  0  0  0  0  0  0  0  0  0  0  0
   -3.0000   -5.1962    0.0000 C   0  0  0  0  0  0  0  0  0  0  0  0
   -1.5000   -5.1962    0.0000 C   0  0  0  0  0  0  0  0  0  0  0  0
   -0.7500   -3.8971    0.0000 C   0  0  0  0  0  0  0  0  0  0  0  0
    1.2709   -6.8515    0.0000 O   0  0  0  0  0  0  0  0  0  0  0  0
   -0.1386   -6.3385    0.0000 C   0  0  0  0  0  0  0  0  0  0  0  0
    5.4996   -8.3906    0.0000 C   0  0  0  0  0  0  0  0  0  0  0  0
    6.6486   -7.4264    0.0000 O   0  0  0  0  0  0  0  0  0  0  0  0
   13.9173  -17.5683    0.0000 O   0  0  0  0  0  0  0  0  0  0  0  0
   14.8815  -18.7174    0.0000 C   0  0  0  0  0  0  0  0  0  0  0  0
   16.3587  -18.4569    0.0000 C   0  0  0  0  0  0  0  0  0  0  0  0
   10.9629  -18.0893    0.0000 O   0  0  0  0  0  0  0  0  0  0  0  0
   10.4498  -19.4988    0.0000 C   0  0  0  0  0  0  0  0  0  0  0  0
    8.9726  -19.7593    0.0000 C   0  0  0  0  0  0  0  0  0  0  0  0
  1  2  1  0
  2  3  1  0
  3  4  1  0
  4  5  1  0
  5  6  1  0
  6  7  1  0
  7  8  1  0
  8  9  1  0
  9 10  1  0
 10 11  1  0
 10 12  1  0
 12 13  1  0
 13 14  1  0
 14 15  2  0
 14 16  1  0
 16 17  1  0
 17 18  1  0
 18 19  1  0
 18 20  1  0
 20 21  1  0
 21 22  1  0
 22 23  1  0
 23 24  1  0
 24 25  1  0
 25 26  1  0
 26 27  1  0
 27 28  1  0
 25 29  1  0
 29 30  1  0
 30 31  1  0
 25 32  1  0
 32 33  1  0
 33 34  1  0
 16 35  1  0
 35 36  2  0
 35 37  1  0
 37 38  1  0
 38 39  1  0
 39 40  1  0
 40 41  1  0
 41 42  2  0
 41 43  1  0
 43 44  1  0
 44 45  2  0
 45 46  1  0
 46 47  2  0
 47 48  1  0
 48 49  2  0
 49 50  1  0
 50 51  2  0
 51 52  1  0
 52 53  2  0
 53 54  1  0
 54 55  2  0
 39 56  1  0
 56 57  1  0
 37 58  1  0
 58 59  2  0
  4 60  1  0
 60 61  1  0
 61 62  1  0
  4 63  1  0
 63 64  1  0
 64 65  1  0
 58 13  1  0
 55 41  1  0
 49 44  1  0
 55 50  1  0
M  END
>  <Candidate_ID>  (359) 
CAND_R2_359

>  <Candidate_Name>  (359) 
TDA-OH-methyl-2

>  <Parent_Seed_ID>  (359) 
TRAIN_010

>  <Parent_Name>  (359) 
TDA

>  <Transformation_Code>  (359) 
OH_methyl

>  <Design_Family>  (359) 
P-N-Si

>  <Preparation_Type>  (359) 
Additive

>  <Synthesis_Level>  (359) 
B

>  <Parent_Tanimoto_r3>  (359) 
0.8125

>  <Max_Train_Tanimoto_r3>  (359) 
0.8125

>  <Risk_Flags>  (359) 
none

$$$$
CAND_R2_360 | TDA-OH-methyl-all
     RDKit          2D

 67 70  0  0  0  0  0  0  0  0999 V2000
   11.8120  -21.7474    0.0000 C   0  0  0  0  0  0  0  0  0  0  0  0
   11.5515  -20.2702    0.0000 C   0  0  0  0  0  0  0  0  0  0  0  0
   12.7006  -19.3060    0.0000 O   0  0  0  0  0  0  0  0  0  0  0  0
   12.4401  -17.8288    0.0000 Si  0  0  0  0  0  4  0  0  0  0  0  0
   12.1796  -16.3516    0.0000 C   0  0  0  0  0  0  0  0  0  0  0  0
   10.7701  -15.8386    0.0000 C   0  0  0  0  0  0  0  0  0  0  0  0
   10.5096  -14.3614    0.0000 C   0  0  0  0  0  0  0  0  0  0  0  0
    9.1001  -13.8483    0.0000 N   0  0  0  0  0  0  0  0  0  0  0  0
    8.8396  -12.3711    0.0000 C   0  0  0  0  0  0  0  0  0  0  0  0
    7.4300  -11.8581    0.0000 C   0  0  0  0  0  0  0  0  0  0  0  0
    7.1696  -10.3809    0.0000 C   0  0  0  0  0  0  0  0  0  0  0  0
    5.7600   -9.8678    0.0000 N   0  0  0  0  0  0  0  0  0  0  0  0
    4.6110  -10.8320    0.0000 C   0  0  0  0  0  0  0  0  0  0  0  0
    4.8714  -12.3092    0.0000 O   0  0  0  0  0  0  0  0  0  0  0  0
    3.2014  -10.3190    0.0000 N   0  0  0  0  0  0  0  0  0  0  0  0
    2.0524  -11.2832    0.0000 C   0  0  0  0  0  0  0  0  0  0  0  0
    0.6428  -10.7701    0.0000 C   0  0  0  0  0  0  0  0  0  0  0  0
   -0.5062  -11.7343    0.0000 C   0  0  0  0  0  0  0  0  0  0  0  0
   -1.9158  -11.2213    0.0000 N   0  0  0  0  0  0  0  0  0  0  0  0
   -3.0648  -12.1855    0.0000 C   0  0  0  0  0  0  0  0  0  0  0  0
   -4.4744  -11.6724    0.0000 C   0  0  0  0  0  0  0  0  0  0  0  0
   -5.6235  -12.6366    0.0000 C   0  0  0  0  0  0  0  0  0  0  0  0
   -7.0330  -12.1236    0.0000 Si  0  0  0  0  0  4  0  0  0  0  0  0
   -8.4425  -11.6106    0.0000 O   0  0  0  0  0  0  0  0  0  0  0  0
   -8.7030  -10.1334    0.0000 C   0  0  0  0  0  0  0  0  0  0  0  0
  -10.1125   -9.6203    0.0000 C   0  0  0  0  0  0  0  0  0  0  0  0
   -7.5460  -13.5331    0.0000 O   0  0  0  0  0  0  0  0  0  0  0  0
   -9.0232  -13.7936    0.0000 C   0  0  0  0  0  0  0  0  0  0  0  0
   -9.5363  -15.2031    0.0000 C   0  0  0  0  0  0  0  0  0  0  0  0
   -6.5200  -10.7141    0.0000 O   0  0  0  0  0  0  0  0  0  0  0  0
   -7.4841   -9.5650    0.0000 C   0  0  0  0  0  0  0  0  0  0  0  0
   -6.9711   -8.1555    0.0000 C   0  0  0  0  0  0  0  0  0  0  0  0
    0.3824   -9.2929    0.0000 O   0  0  0  0  0  0  0  0  0  0  0  0
   -1.0272   -8.7799    0.0000 C   0  0  0  0  0  0  0  0  0  0  0  0
    2.9410   -8.8418    0.0000 C   0  0  0  0  0  0  0  0  0  0  0  0
    1.5314   -8.3287    0.0000 O   0  0  0  0  0  0  0  0  0  0  0  0
    4.0900   -7.8776    0.0000 N   0  0  0  0  0  0  0  0  0  0  0  0
    3.8296   -6.4004    0.0000 C   0  0  0  0  0  0  0  0  0  0  0  0
    2.4200   -5.8874    0.0000 C   0  0  0  0  0  0  0  0  0  0  0  0
    2.1595   -4.4101    0.0000 C   0  0  0  0  0  0  0  0  0  0  0  0
    0.7500   -3.8971    0.0000 P   0  0  0  0  0  0  0  0  0  0  0  0
    0.4895   -5.3743    0.0000 O   0  0  0  0  0  0  0  0  0  0  0  0
    1.5000   -2.5981    0.0000 O   0  0  0  0  0  0  0  0  0  0  0  0
    0.7500   -1.2990    0.0000 C   0  0  0  0  0  0  0  0  0  0  0  0
    1.5000    0.0000    0.0000 C   0  0  0  0  0  0  0  0  0  0  0  0
    0.7500    1.2990    0.0000 C   0  0  0  0  0  0  0  0  0  0  0  0
   -0.7500    1.2990    0.0000 C   0  0  0  0  0  0  0  0  0  0  0  0
   -1.5000    0.0000    0.0000 C   0  0  0  0  0  0  0  0  0  0  0  0
   -0.7500   -1.2990    0.0000 C   0  0  0  0  0  0  0  0  0  0  0  0
   -1.5000   -2.5981    0.0000 C   0  0  0  0  0  0  0  0  0  0  0  0
   -3.0000   -2.5981    0.0000 C   0  0  0  0  0  0  0  0  0  0  0  0
   -3.7500   -3.8971    0.0000 C   0  0  0  0  0  0  0  0  0  0  0  0
   -3.0000   -5.1962    0.0000 C   0  0  0  0  0  0  0  0  0  0  0  0
   -1.5000   -5.1962    0.0000 C   0  0  0  0  0  0  0  0  0  0  0  0
   -0.7500   -3.8971    0.0000 C   0  0  0  0  0  0  0  0  0  0  0  0
    1.2709   -6.8515    0.0000 O   0  0  0  0  0  0  0  0  0  0  0  0
   -0.1386   -6.3385    0.0000 C   0  0  0  0  0  0  0  0  0  0  0  0
    5.4996   -8.3906    0.0000 C   0  0  0  0  0  0  0  0  0  0  0  0
    6.6486   -7.4264    0.0000 O   0  0  0  0  0  0  0  0  0  0  0  0
    6.2810  -12.8223    0.0000 O   0  0  0  0  0  0  0  0  0  0  0  0
    6.5415  -14.2995    0.0000 C   0  0  0  0  0  0  0  0  0  0  0  0
   13.9173  -17.5683    0.0000 O   0  0  0  0  0  0  0  0  0  0  0  0
   14.8815  -18.7174    0.0000 C   0  0  0  0  0  0  0  0  0  0  0  0
   16.3587  -18.4569    0.0000 C   0  0  0  0  0  0  0  0  0  0  0  0
   10.9629  -18.0893    0.0000 O   0  0  0  0  0  0  0  0  0  0  0  0
   10.4498  -19.4988    0.0000 C   0  0  0  0  0  0  0  0  0  0  0  0
    8.9726  -19.7593    0.0000 C   0  0  0  0  0  0  0  0  0  0  0  0
  1  2  1  0
  2  3  1  0
  3  4  1  0
  4  5  1  0
  5  6  1  0
  6  7  1  0
  7  8  1  0
  8  9  1  0
  9 10  1  0
 10 11  1  0
 11 12  1  0
 12 13  1  0
 13 14  2  0
 13 15  1  0
 15 16  1  0
 16 17  1  0
 17 18  1  0
 18 19  1  0
 19 20  1  0
 20 21  1  0
 21 22  1  0
 22 23  1  0
 23 24  1  0
 24 25  1  0
 25 26  1  0
 23 27  1  0
 27 28  1  0
 28 29  1  0
 23 30  1  0
 30 31  1  0
 31 32  1  0
 17 33  1  0
 33 34  1  0
 15 35  1  0
 35 36  2  0
 35 37  1  0
 37 38  1  0
 38 39  1  0
 39 40  1  0
 40 41  1  0
 41 42  2  0
 41 43  1  0
 43 44  1  0
 44 45  2  0
 45 46  1  0
 46 47  2  0
 47 48  1  0
 48 49  2  0
 49 50  1  0
 50 51  2  0
 51 52  1  0
 52 53  2  0
 53 54  1  0
 54 55  2  0
 39 56  1  0
 56 57  1  0
 37 58  1  0
 58 59  2  0
 10 60  1  0
 60 61  1  0
  4 62  1  0
 62 63  1  0
 63 64  1  0
  4 65  1  0
 65 66  1  0
 66 67  1  0
 58 12  1  0
 55 41  1  0
 49 44  1  0
 55 50  1  0
M  END
>  <Candidate_ID>  (360) 
CAND_R2_360

>  <Candidate_Name>  (360) 
TDA-OH-methyl-all

>  <Parent_Seed_ID>  (360) 
TRAIN_010

>  <Parent_Name>  (360) 
TDA

>  <Transformation_Code>  (360) 
OH_methyl_all

>  <Design_Family>  (360) 
P-N-Si

>  <Preparation_Type>  (360) 
Additive

>  <Synthesis_Level>  (360) 
B

>  <Parent_Tanimoto_r3>  (360) 
0.6764705882352942

>  <Max_Train_Tanimoto_r3>  (360) 
0.6764705882352942

>  <Risk_Flags>  (360) 
candidate may be outside strict in-domain threshold

$$$$
CAND_R2_361 | TDA-OH-acetyl
     RDKit          2D

 67 70  0  0  0  0  0  0  0  0999 V2000
  -10.1125   -9.6203    0.0000 C   0  0  0  0  0  0  0  0  0  0  0  0
   -8.7030  -10.1334    0.0000 C   0  0  0  0  0  0  0  0  0  0  0  0
   -8.4425  -11.6106    0.0000 O   0  0  0  0  0  0  0  0  0  0  0  0
   -7.0330  -12.1236    0.0000 Si  0  0  0  0  0  4  0  0  0  0  0  0
   -5.6235  -12.6366    0.0000 C   0  0  0  0  0  0  0  0  0  0  0  0
   -4.4744  -11.6724    0.0000 C   0  0  0  0  0  0  0  0  0  0  0  0
   -3.0648  -12.1855    0.0000 C   0  0  0  0  0  0  0  0  0  0  0  0
   -1.9158  -11.2213    0.0000 N   0  0  0  0  0  0  0  0  0  0  0  0
   -0.5062  -11.7343    0.0000 C   0  0  0  0  0  0  0  0  0  0  0  0
    0.6428  -10.7701    0.0000 C   0  0  0  0  0  0  0  0  0  0  0  0
    0.3824   -9.2929    0.0000 O   0  0  0  0  0  0  0  0  0  0  0  0
    2.0524  -11.2832    0.0000 C   0  0  0  0  0  0  0  0  0  0  0  0
    3.2014  -10.3190    0.0000 N   0  0  0  0  0  0  0  0  0  0  0  0
    2.9410   -8.8418    0.0000 C   0  0  0  0  0  0  0  0  0  0  0  0
    1.5314   -8.3287    0.0000 O   0  0  0  0  0  0  0  0  0  0  0  0
    4.0900   -7.8776    0.0000 N   0  0  0  0  0  0  0  0  0  0  0  0
    3.8296   -6.4004    0.0000 C   0  0  0  0  0  0  0  0  0  0  0  0
    2.4200   -5.8874    0.0000 C   0  0  0  0  0  0  0  0  0  0  0  0
    1.2709   -6.8515    0.0000 O   0  0  0  0  0  0  0  0  0  0  0  0
    2.1595   -4.4101    0.0000 C   0  0  0  0  0  0  0  0  0  0  0  0
    0.7500   -3.8971    0.0000 P   0  0  0  0  0  0  0  0  0  0  0  0
    0.4895   -5.3743    0.0000 O   0  0  0  0  0  0  0  0  0  0  0  0
    1.5000   -2.5981    0.0000 O   0  0  0  0  0  0  0  0  0  0  0  0
    0.7500   -1.2990    0.0000 C   0  0  0  0  0  0  0  0  0  0  0  0
    1.5000    0.0000    0.0000 C   0  0  0  0  0  0  0  0  0  0  0  0
    0.7500    1.2990    0.0000 C   0  0  0  0  0  0  0  0  0  0  0  0
   -0.7500    1.2990    0.0000 C   0  0  0  0  0  0  0  0  0  0  0  0
   -1.5000    0.0000    0.0000 C   0  0  0  0  0  0  0  0  0  0  0  0
   -0.7500   -1.2990    0.0000 C   0  0  0  0  0  0  0  0  0  0  0  0
   -1.5000   -2.5981    0.0000 C   0  0  0  0  0  0  0  0  0  0  0  0
   -3.0000   -2.5981    0.0000 C   0  0  0  0  0  0  0  0  0  0  0  0
   -3.7500   -3.8971    0.0000 C   0  0  0  0  0  0  0  0  0  0  0  0
   -3.0000   -5.1962    0.0000 C   0  0  0  0  0  0  0  0  0  0  0  0
   -1.5000   -5.1962    0.0000 C   0  0  0  0  0  0  0  0  0  0  0  0
   -0.7500   -3.8971    0.0000 C   0  0  0  0  0  0  0  0  0  0  0  0
    5.4996   -8.3906    0.0000 C   0  0  0  0  0  0  0  0  0  0  0  0
    6.6486   -7.4264    0.0000 O   0  0  0  0  0  0  0  0  0  0  0  0
    5.7600   -9.8678    0.0000 N   0  0  0  0  0  0  0  0  0  0  0  0
    7.1696  -10.3809    0.0000 C   0  0  0  0  0  0  0  0  0  0  0  0
    7.4300  -11.8581    0.0000 C   0  0  0  0  0  0  0  0  0  0  0  0
    8.8396  -12.3711    0.0000 C   0  0  0  0  0  0  0  0  0  0  0  0
    9.1001  -13.8483    0.0000 N   0  0  0  0  0  0  0  0  0  0  0  0
   10.5096  -14.3614    0.0000 C   0  0  0  0  0  0  0  0  0  0  0  0
   10.7701  -15.8386    0.0000 C   0  0  0  0  0  0  0  0  0  0  0  0
   12.1796  -16.3516    0.0000 C   0  0  0  0  0  0  0  0  0  0  0  0
   12.4401  -17.8288    0.0000 Si  0  0  0  0  0  4  0  0  0  0  0  0
   12.7006  -19.3060    0.0000 O   0  0  0  0  0  0  0  0  0  0  0  0
   11.5515  -20.2702    0.0000 C   0  0  0  0  0  0  0  0  0  0  0  0
   11.8120  -21.7474    0.0000 C   0  0  0  0  0  0  0  0  0  0  0  0
   13.9173  -17.5683    0.0000 O   0  0  0  0  0  0  0  0  0  0  0  0
   14.8815  -18.7174    0.0000 C   0  0  0  0  0  0  0  0  0  0  0  0
   16.3587  -18.4569    0.0000 C   0  0  0  0  0  0  0  0  0  0  0  0
   10.9629  -18.0893    0.0000 O   0  0  0  0  0  0  0  0  0  0  0  0
   10.4498  -19.4988    0.0000 C   0  0  0  0  0  0  0  0  0  0  0  0
    8.9726  -19.7593    0.0000 C   0  0  0  0  0  0  0  0  0  0  0  0
    6.2810  -12.8223    0.0000 O   0  0  0  0  0  0  0  0  0  0  0  0
    6.5415  -14.2995    0.0000 C   0  0  0  0  0  0  0  0  0  0  0  0
    5.3924  -15.2637    0.0000 C   0  0  0  0  0  0  0  0  0  0  0  0
    7.9510  -14.8125    0.0000 O   0  0  0  0  0  0  0  0  0  0  0  0
    4.6110  -10.8320    0.0000 C   0  0  0  0  0  0  0  0  0  0  0  0
    4.8714  -12.3092    0.0000 O   0  0  0  0  0  0  0  0  0  0  0  0
   -7.5460  -13.5331    0.0000 O   0  0  0  0  0  0  0  0  0  0  0  0
   -9.0232  -13.7936    0.0000 C   0  0  0  0  0  0  0  0  0  0  0  0
   -9.5363  -15.2031    0.0000 C   0  0  0  0  0  0  0  0  0  0  0  0
   -6.5200  -10.7141    0.0000 O   0  0  0  0  0  0  0  0  0  0  0  0
   -7.4841   -9.5650    0.0000 C   0  0  0  0  0  0  0  0  0  0  0  0
   -6.9711   -8.1555    0.0000 C   0  0  0  0  0  0  0  0  0  0  0  0
  1  2  1  0
  2  3  1  0
  3  4  1  0
  4  5  1  0
  5  6  1  0
  6  7  1  0
  7  8  1  0
  8  9  1  0
  9 10  1  0
 10 11  1  0
 10 12  1  0
 12 13  1  0
 13 14  1  0
 14 15  2  0
 14 16  1  0
 16 17  1  0
 17 18  1  0
 18 19  1  0
 18 20  1  0
 20 21  1  0
 21 22  2  0
 21 23  1  0
 23 24  1  0
 24 25  2  0
 25 26  1  0
 26 27  2  0
 27 28  1  0
 28 29  2  0
 29 30  1  0
 30 31  2  0
 31 32  1  0
 32 33  2  0
 33 34  1  0
 34 35  2  0
 16 36  1  0
 36 37  2  0
 36 38  1  0
 38 39  1  0
 39 40  1  0
 40 41  1  0
 41 42  1  0
 42 43  1  0
 43 44  1  0
 44 45  1  0
 45 46  1  0
 46 47  1  0
 47 48  1  0
 48 49  1  0
 46 50  1  0
 50 51  1  0
 51 52  1  0
 46 53  1  0
 53 54  1  0
 54 55  1  0
 40 56  1  0
 56 57  1  0
 57 58  1  0
 57 59  2  0
 38 60  1  0
 60 61  2  0
  4 62  1  0
 62 63  1  0
 63 64  1  0
  4 65  1  0
 65 66  1  0
 66 67  1  0
 60 13  1  0
 35 21  1  0
 29 24  1  0
 35 30  1  0
M  END
>  <Candidate_ID>  (361) 
CAND_R2_361

>  <Candidate_Name>  (361) 
TDA-OH-acetyl

>  <Parent_Seed_ID>  (361) 
TRAIN_010

>  <Parent_Name>  (361) 
TDA

>  <Transformation_Code>  (361) 
OH_acetyl

>  <Design_Family>  (361) 
P-N-Si

>  <Preparation_Type>  (361) 
Additive

>  <Synthesis_Level>  (361) 
B

>  <Parent_Tanimoto_r3>  (361) 
0.84

>  <Max_Train_Tanimoto_r3>  (361) 
0.84

>  <Risk_Flags>  (361) 
none

$$$$
CAND_R2_362 | TDA-OH-acetyl-2
     RDKit          2D

 67 70  0  0  0  0  0  0  0  0999 V2000
   11.8120  -21.7474    0.0000 C   0  0  0  0  0  0  0  0  0  0  0  0
   11.5515  -20.2702    0.0000 C   0  0  0  0  0  0  0  0  0  0  0  0
   12.7006  -19.3060    0.0000 O   0  0  0  0  0  0  0  0  0  0  0  0
   12.4401  -17.8288    0.0000 Si  0  0  0  0  0  4  0  0  0  0  0  0
   12.1796  -16.3516    0.0000 C   0  0  0  0  0  0  0  0  0  0  0  0
   10.7701  -15.8386    0.0000 C   0  0  0  0  0  0  0  0  0  0  0  0
   10.5096  -14.3614    0.0000 C   0  0  0  0  0  0  0  0  0  0  0  0
    9.1001  -13.8483    0.0000 N   0  0  0  0  0  0  0  0  0  0  0  0
    8.8396  -12.3711    0.0000 C   0  0  0  0  0  0  0  0  0  0  0  0
    7.4300  -11.8581    0.0000 C   0  0  0  0  0  0  0  0  0  0  0  0
    6.2810  -12.8223    0.0000 O   0  0  0  0  0  0  0  0  0  0  0  0
    7.1696  -10.3809    0.0000 C   0  0  0  0  0  0  0  0  0  0  0  0
    5.7600   -9.8678    0.0000 N   0  0  0  0  0  0  0  0  0  0  0  0
    4.6110  -10.8320    0.0000 C   0  0  0  0  0  0  0  0  0  0  0  0
    4.8714  -12.3092    0.0000 O   0  0  0  0  0  0  0  0  0  0  0  0
    3.2014  -10.3190    0.0000 N   0  0  0  0  0  0  0  0  0  0  0  0
    2.0524  -11.2832    0.0000 C   0  0  0  0  0  0  0  0  0  0  0  0
    0.6428  -10.7701    0.0000 C   0  0  0  0  0  0  0  0  0  0  0  0
    0.3824   -9.2929    0.0000 O   0  0  0  0  0  0  0  0  0  0  0  0
   -0.5062  -11.7343    0.0000 C   0  0  0  0  0  0  0  0  0  0  0  0
   -1.9158  -11.2213    0.0000 N   0  0  0  0  0  0  0  0  0  0  0  0
   -3.0648  -12.1855    0.0000 C   0  0  0  0  0  0  0  0  0  0  0  0
   -4.4744  -11.6724    0.0000 C   0  0  0  0  0  0  0  0  0  0  0  0
   -5.6235  -12.6366    0.0000 C   0  0  0  0  0  0  0  0  0  0  0  0
   -7.0330  -12.1236    0.0000 Si  0  0  0  0  0  4  0  0  0  0  0  0
   -8.4425  -11.6106    0.0000 O   0  0  0  0  0  0  0  0  0  0  0  0
   -8.7030  -10.1334    0.0000 C   0  0  0  0  0  0  0  0  0  0  0  0
  -10.1125   -9.6203    0.0000 C   0  0  0  0  0  0  0  0  0  0  0  0
   -7.5460  -13.5331    0.0000 O   0  0  0  0  0  0  0  0  0  0  0  0
   -9.0232  -13.7936    0.0000 C   0  0  0  0  0  0  0  0  0  0  0  0
   -9.5363  -15.2031    0.0000 C   0  0  0  0  0  0  0  0  0  0  0  0
   -6.5200  -10.7141    0.0000 O   0  0  0  0  0  0  0  0  0  0  0  0
   -7.4841   -9.5650    0.0000 C   0  0  0  0  0  0  0  0  0  0  0  0
   -6.9711   -8.1555    0.0000 C   0  0  0  0  0  0  0  0  0  0  0  0
    2.9410   -8.8418    0.0000 C   0  0  0  0  0  0  0  0  0  0  0  0
    1.5314   -8.3287    0.0000 O   0  0  0  0  0  0  0  0  0  0  0  0
    4.0900   -7.8776    0.0000 N   0  0  0  0  0  0  0  0  0  0  0  0
    3.8296   -6.4004    0.0000 C   0  0  0  0  0  0  0  0  0  0  0  0
    2.4200   -5.8874    0.0000 C   0  0  0  0  0  0  0  0  0  0  0  0
    2.1595   -4.4101    0.0000 C   0  0  0  0  0  0  0  0  0  0  0  0
    0.7500   -3.8971    0.0000 P   0  0  0  0  0  0  0  0  0  0  0  0
    0.4895   -5.3743    0.0000 O   0  0  0  0  0  0  0  0  0  0  0  0
    1.5000   -2.5981    0.0000 O   0  0  0  0  0  0  0  0  0  0  0  0
    0.7500   -1.2990    0.0000 C   0  0  0  0  0  0  0  0  0  0  0  0
    1.5000    0.0000    0.0000 C   0  0  0  0  0  0  0  0  0  0  0  0
    0.7500    1.2990    0.0000 C   0  0  0  0  0  0  0  0  0  0  0  0
   -0.7500    1.2990    0.0000 C   0  0  0  0  0  0  0  0  0  0  0  0
   -1.5000    0.0000    0.0000 C   0  0  0  0  0  0  0  0  0  0  0  0
   -0.7500   -1.2990    0.0000 C   0  0  0  0  0  0  0  0  0  0  0  0
   -1.5000   -2.5981    0.0000 C   0  0  0  0  0  0  0  0  0  0  0  0
   -3.0000   -2.5981    0.0000 C   0  0  0  0  0  0  0  0  0  0  0  0
   -3.7500   -3.8971    0.0000 C   0  0  0  0  0  0  0  0  0  0  0  0
   -3.0000   -5.1962    0.0000 C   0  0  0  0  0  0  0  0  0  0  0  0
   -1.5000   -5.1962    0.0000 C   0  0  0  0  0  0  0  0  0  0  0  0
   -0.7500   -3.8971    0.0000 C   0  0  0  0  0  0  0  0  0  0  0  0
    1.2709   -6.8515    0.0000 O   0  0  0  0  0  0  0  0  0  0  0  0
   -0.1386   -6.3385    0.0000 C   0  0  0  0  0  0  0  0  0  0  0  0
   -1.2877   -7.3027    0.0000 C   0  0  0  0  0  0  0  0  0  0  0  0
   -0.3991   -4.8613    0.0000 O   0  0  0  0  0  0  0  0  0  0  0  0
    5.4996   -8.3906    0.0000 C   0  0  0  0  0  0  0  0  0  0  0  0
    6.6486   -7.4264    0.0000 O   0  0  0  0  0  0  0  0  0  0  0  0
   13.9173  -17.5683    0.0000 O   0  0  0  0  0  0  0  0  0  0  0  0
   14.8815  -18.7174    0.0000 C   0  0  0  0  0  0  0  0  0  0  0  0
   16.3587  -18.4569    0.0000 C   0  0  0  0  0  0  0  0  0  0  0  0
   10.9629  -18.0893    0.0000 O   0  0  0  0  0  0  0  0  0  0  0  0
   10.4498  -19.4988    0.0000 C   0  0  0  0  0  0  0  0  0  0  0  0
    8.9726  -19.7593    0.0000 C   0  0  0  0  0  0  0  0  0  0  0  0
  1  2  1  0
  2  3  1  0
  3  4  1  0
  4  5  1  0
  5  6  1  0
  6  7  1  0
  7  8  1  0
  8  9  1  0
  9 10  1  0
 10 11  1  0
 10 12  1  0
 12 13  1  0
 13 14  1  0
 14 15  2  0
 14 16  1  0
 16 17  1  0
 17 18  1  0
 18 19  1  0
 18 20  1  0
 20 21  1  0
 21 22  1  0
 22 23  1  0
 23 24  1  0
 24 25  1  0
 25 26  1  0
 26 27  1  0
 27 28  1  0
 25 29  1  0
 29 30  1  0
 30 31  1  0
 25 32  1  0
 32 33  1  0
 33 34  1  0
 16 35  1  0
 35 36  2  0
 35 37  1  0
 37 38  1  0
 38 39  1  0
 39 40  1  0
 40 41  1  0
 41 42  2  0
 41 43  1  0
 43 44  1  0
 44 45  2  0
 45 46  1  0
 46 47  2  0
 47 48  1  0
 48 49  2  0
 49 50  1  0
 50 51  2  0
 51 52  1  0
 52 53  2  0
 53 54  1  0
 54 55  2  0
 39 56  1  0
 56 57  1  0
 57 58  1  0
 57 59  2  0
 37 60  1  0
 60 61  2  0
  4 62  1  0
 62 63  1  0
 63 64  1  0
  4 65  1  0
 65 66  1  0
 66 67  1  0
 60 13  1  0
 55 41  1  0
 49 44  1  0
 55 50  1  0
M  END
>  <Candidate_ID>  (362) 
CAND_R2_362

>  <Candidate_Name>  (362) 
TDA-OH-acetyl-2

>  <Parent_Seed_ID>  (362) 
TRAIN_010

>  <Parent_Name>  (362) 
TDA

>  <Transformation_Code>  (362) 
OH_acetyl

>  <Design_Family>  (362) 
P-N-Si

>  <Preparation_Type>  (362) 
Additive

>  <Synthesis_Level>  (362) 
B

>  <Parent_Tanimoto_r3>  (362) 
0.78

>  <Max_Train_Tanimoto_r3>  (362) 
0.78

>  <Risk_Flags>  (362) 
none

$$$$
CAND_R2_363 | TDA-OH-acetyl-all
     RDKit          2D

 73 76  0  0  0  0  0  0  0  0999 V2000
   11.8120  -21.7474    0.0000 C   0  0  0  0  0  0  0  0  0  0  0  0
   11.5515  -20.2702    0.0000 C   0  0  0  0  0  0  0  0  0  0  0  0
   12.7006  -19.3060    0.0000 O   0  0  0  0  0  0  0  0  0  0  0  0
   12.4401  -17.8288    0.0000 Si  0  0  0  0  0  4  0  0  0  0  0  0
   12.1796  -16.3516    0.0000 C   0  0  0  0  0  0  0  0  0  0  0  0
   10.7701  -15.8386    0.0000 C   0  0  0  0  0  0  0  0  0  0  0  0
   10.5096  -14.3614    0.0000 C   0  0  0  0  0  0  0  0  0  0  0  0
    9.1001  -13.8483    0.0000 N   0  0  0  0  0  0  0  0  0  0  0  0
    8.8396  -12.3711    0.0000 C   0  0  0  0  0  0  0  0  0  0  0  0
    7.4300  -11.8581    0.0000 C   0  0  0  0  0  0  0  0  0  0  0  0
    7.1696  -10.3809    0.0000 C   0  0  0  0  0  0  0  0  0  0  0  0
    5.7600   -9.8678    0.0000 N   0  0  0  0  0  0  0  0  0  0  0  0
    4.6110  -10.8320    0.0000 C   0  0  0  0  0  0  0  0  0  0  0  0
    4.8714  -12.3092    0.0000 O   0  0  0  0  0  0  0  0  0  0  0  0
    3.2014  -10.3190    0.0000 N   0  0  0  0  0  0  0  0  0  0  0  0
    2.0524  -11.2832    0.0000 C   0  0  0  0  0  0  0  0  0  0  0  0
    0.6428  -10.7701    0.0000 C   0  0  0  0  0  0  0  0  0  0  0  0
   -0.5062  -11.7343    0.0000 C   0  0  0  0  0  0  0  0  0  0  0  0
   -1.9158  -11.2213    0.0000 N   0  0  0  0  0  0  0  0  0  0  0  0
   -3.0648  -12.1855    0.0000 C   0  0  0  0  0  0  0  0  0  0  0  0
   -4.4744  -11.6724    0.0000 C   0  0  0  0  0  0  0  0  0  0  0  0
   -5.6235  -12.6366    0.0000 C   0  0  0  0  0  0  0  0  0  0  0  0
   -7.0330  -12.1236    0.0000 Si  0  0  0  0  0  4  0  0  0  0  0  0
   -8.4425  -11.6106    0.0000 O   0  0  0  0  0  0  0  0  0  0  0  0
   -8.7030  -10.1334    0.0000 C   0  0  0  0  0  0  0  0  0  0  0  0
  -10.1125   -9.6203    0.0000 C   0  0  0  0  0  0  0  0  0  0  0  0
   -7.5460  -13.5331    0.0000 O   0  0  0  0  0  0  0  0  0  0  0  0
   -9.0232  -13.7936    0.0000 C   0  0  0  0  0  0  0  0  0  0  0  0
   -9.5363  -15.2031    0.0000 C   0  0  0  0  0  0  0  0  0  0  0  0
   -6.5200  -10.7141    0.0000 O   0  0  0  0  0  0  0  0  0  0  0  0
   -7.4841   -9.5650    0.0000 C   0  0  0  0  0  0  0  0  0  0  0  0
   -6.9711   -8.1555    0.0000 C   0  0  0  0  0  0  0  0  0  0  0  0
    0.3824   -9.2929    0.0000 O   0  0  0  0  0  0  0  0  0  0  0  0
   -1.0272   -8.7799    0.0000 C   0  0  0  0  0  0  0  0  0  0  0  0
   -1.2877   -7.3027    0.0000 C   0  0  0  0  0  0  0  0  0  0  0  0
   -2.1763   -9.7441    0.0000 O   0  0  0  0  0  0  0  0  0  0  0  0
    2.9410   -8.8418    0.0000 C   0  0  0  0  0  0  0  0  0  0  0  0
    1.5314   -8.3287    0.0000 O   0  0  0  0  0  0  0  0  0  0  0  0
    4.0900   -7.8776    0.0000 N   0  0  0  0  0  0  0  0  0  0  0  0
    3.8296   -6.4004    0.0000 C   0  0  0  0  0  0  0  0  0  0  0  0
    4.9786   -5.4362    0.0000 C   0  0  0  0  0  0  0  0  0  0  0  0
    4.7181   -3.9590    0.0000 C   0  0  0  0  0  0  0  0  0  0  0  0
    5.8672   -2.9948    0.0000 P   0  0  0  0  0  0  0  0  0  0  0  0
    6.6172   -4.2939    0.0000 O   0  0  0  0  0  0  0  0  0  0  0  0
    4.7181   -2.0306    0.0000 O   0  0  0  0  0  0  0  0  0  0  0  0
    4.9786   -0.5534    0.0000 C   0  0  0  0  0  0  0  0  0  0  0  0
    3.8296    0.4108    0.0000 C   0  0  0  0  0  0  0  0  0  0  0  0
    4.0900    1.8880    0.0000 C   0  0  0  0  0  0  0  0  0  0  0  0
    5.4996    2.4010    0.0000 C   0  0  0  0  0  0  0  0  0  0  0  0
    6.6486    1.4368    0.0000 C   0  0  0  0  0  0  0  0  0  0  0  0
    6.3882   -0.0404    0.0000 C   0  0  0  0  0  0  0  0  0  0  0  0
    7.5372   -1.0046    0.0000 C   0  0  0  0  0  0  0  0  0  0  0  0
    8.9468   -0.4915    0.0000 C   0  0  0  0  0  0  0  0  0  0  0  0
   10.0958   -1.4557    0.0000 C   0  0  0  0  0  0  0  0  0  0  0  0
    9.8354   -2.9329    0.0000 C   0  0  0  0  0  0  0  0  0  0  0  0
    8.4258   -3.4460    0.0000 C   0  0  0  0  0  0  0  0  0  0  0  0
    7.2768   -2.4818    0.0000 C   0  0  0  0  0  0  0  0  0  0  0  0
    6.3882   -5.9492    0.0000 O   0  0  0  0  0  0  0  0  0  0  0  0
    7.5372   -4.9851    0.0000 C   0  0  0  0  0  0  0  0  0  0  0  0
    7.2768   -3.5078    0.0000 C   0  0  0  0  0  0  0  0  0  0  0  0
    8.9468   -5.4981    0.0000 O   0  0  0  0  0  0  0  0  0  0  0  0
    5.4996   -8.3906    0.0000 C   0  0  0  0  0  0  0  0  0  0  0  0
    6.6486   -7.4264    0.0000 O   0  0  0  0  0  0  0  0  0  0  0  0
    6.2810  -12.8223    0.0000 O   0  0  0  0  0  0  0  0  0  0  0  0
    6.5415  -14.2995    0.0000 C   0  0  0  0  0  0  0  0  0  0  0  0
    5.3924  -15.2637    0.0000 C   0  0  0  0  0  0  0  0  0  0  0  0
    7.9510  -14.8125    0.0000 O   0  0  0  0  0  0  0  0  0  0  0  0
   13.9173  -17.5683    0.0000 O   0  0  0  0  0  0  0  0  0  0  0  0
   14.8815  -18.7174    0.0000 C   0  0  0  0  0  0  0  0  0  0  0  0
   16.3587  -18.4569    0.0000 C   0  0  0  0  0  0  0  0  0  0  0  0
   10.9629  -18.0893    0.0000 O   0  0  0  0  0  0  0  0  0  0  0  0
   10.4498  -19.4988    0.0000 C   0  0  0  0  0  0  0  0  0  0  0  0
    8.9726  -19.7593    0.0000 C   0  0  0  0  0  0  0  0  0  0  0  0
  1  2  1  0
  2  3  1  0
  3  4  1  0
  4  5  1  0
  5  6  1  0
  6  7  1  0
  7  8  1  0
  8  9  1  0
  9 10  1  0
 10 11  1  0
 11 12  1  0
 12 13  1  0
 13 14  2  0
 13 15  1  0
 15 16  1  0
 16 17  1  0
 17 18  1  0
 18 19  1  0
 19 20  1  0
 20 21  1  0
 21 22  1  0
 22 23  1  0
 23 24  1  0
 24 25  1  0
 25 26  1  0
 23 27  1  0
 27 28  1  0
 28 29  1  0
 23 30  1  0
 30 31  1  0
 31 32  1  0
 17 33  1  0
 33 34  1  0
 34 35  1  0
 34 36  2  0
 15 37  1  0
 37 38  2  0
 37 39  1  0
 39 40  1  0
 40 41  1  0
 41 42  1  0
 42 43  1  0
 43 44  2  0
 43 45  1  0
 45 46  1  0
 46 47  2  0
 47 48  1  0
 48 49  2  0
 49 50  1  0
 50 51  2  0
 51 52  1  0
 52 53  2  0
 53 54  1  0
 54 55  2  0
 55 56  1  0
 56 57  2  0
 41 58  1  0
 58 59  1  0
 59 60  1  0
 59 61  2  0
 39 62  1  0
 62 63  2  0
 10 64  1  0
 64 65  1  0
 65 66  1  0
 65 67  2  0
  4 68  1  0
 68 69  1  0
 69 70  1  0
  4 71  1  0
 71 72  1  0
 72 73  1  0
 62 12  1  0
 57 43  1  0
 51 46  1  0
 57 52  1  0
M  END
>  <Candidate_ID>  (363) 
CAND_R2_363

>  <Candidate_Name>  (363) 
TDA-OH-acetyl-all

>  <Parent_Seed_ID>  (363) 
TRAIN_010

>  <Parent_Name>  (363) 
TDA

>  <Transformation_Code>  (363) 
OH_acetyl_all

>  <Design_Family>  (363) 
P-N-Si

>  <Preparation_Type>  (363) 
Additive

>  <Synthesis_Level>  (363) 
B

>  <Parent_Tanimoto_r3>  (363) 
0.6542056074766355

>  <Max_Train_Tanimoto_r3>  (363) 
0.6542056074766355

>  <Risk_Flags>  (363) 
candidate may be outside strict in-domain threshold

$$$$
CAND_R2_364 | TDA-OH-allyl
     RDKit          2D

 67 70  0  0  0  0  0  0  0  0999 V2000
    5.6529  -16.7409    0.0000 C   0  0  0  0  0  0  0  0  0  0  0  0
    5.3924  -15.2637    0.0000 C   0  0  0  0  0  0  0  0  0  0  0  0
    6.5415  -14.2995    0.0000 C   0  0  0  0  0  0  0  0  0  0  0  0
    6.2810  -12.8223    0.0000 O   0  0  0  0  0  0  0  0  0  0  0  0
    7.4300  -11.8581    0.0000 C   0  0  0  0  0  0  0  0  0  0  0  0
    8.8396  -12.3711    0.0000 C   0  0  0  0  0  0  0  0  0  0  0  0
    9.1001  -13.8483    0.0000 N   0  0  0  0  0  0  0  0  0  0  0  0
   10.5096  -14.3614    0.0000 C   0  0  0  0  0  0  0  0  0  0  0  0
   10.7701  -15.8386    0.0000 C   0  0  0  0  0  0  0  0  0  0  0  0
   12.1796  -16.3516    0.0000 C   0  0  0  0  0  0  0  0  0  0  0  0
   12.4401  -17.8288    0.0000 Si  0  0  0  0  0  4  0  0  0  0  0  0
   12.7006  -19.3060    0.0000 O   0  0  0  0  0  0  0  0  0  0  0  0
   11.5515  -20.2702    0.0000 C   0  0  0  0  0  0  0  0  0  0  0  0
   11.8120  -21.7474    0.0000 C   0  0  0  0  0  0  0  0  0  0  0  0
   13.9173  -17.5683    0.0000 O   0  0  0  0  0  0  0  0  0  0  0  0
   14.8815  -18.7174    0.0000 C   0  0  0  0  0  0  0  0  0  0  0  0
   16.3587  -18.4569    0.0000 C   0  0  0  0  0  0  0  0  0  0  0  0
   10.9629  -18.0893    0.0000 O   0  0  0  0  0  0  0  0  0  0  0  0
   10.4498  -19.4988    0.0000 C   0  0  0  0  0  0  0  0  0  0  0  0
    8.9726  -19.7593    0.0000 C   0  0  0  0  0  0  0  0  0  0  0  0
    7.1696  -10.3809    0.0000 C   0  0  0  0  0  0  0  0  0  0  0  0
    5.7600   -9.8678    0.0000 N   0  0  0  0  0  0  0  0  0  0  0  0
    4.6110  -10.8320    0.0000 C   0  0  0  0  0  0  0  0  0  0  0  0
    4.8714  -12.3092    0.0000 O   0  0  0  0  0  0  0  0  0  0  0  0
    3.2014  -10.3190    0.0000 N   0  0  0  0  0  0  0  0  0  0  0  0
    2.0524  -11.2832    0.0000 C   0  0  0  0  0  0  0  0  0  0  0  0
    0.6428  -10.7701    0.0000 C   0  0  0  0  0  0  0  0  0  0  0  0
    0.3824   -9.2929    0.0000 O   0  0  0  0  0  0  0  0  0  0  0  0
   -0.5062  -11.7343    0.0000 C   0  0  0  0  0  0  0  0  0  0  0  0
   -1.9158  -11.2213    0.0000 N   0  0  0  0  0  0  0  0  0  0  0  0
   -3.0648  -12.1855    0.0000 C   0  0  0  0  0  0  0  0  0  0  0  0
   -4.4744  -11.6724    0.0000 C   0  0  0  0  0  0  0  0  0  0  0  0
   -5.6235  -12.6366    0.0000 C   0  0  0  0  0  0  0  0  0  0  0  0
   -7.0330  -12.1236    0.0000 Si  0  0  0  0  0  4  0  0  0  0  0  0
   -8.4425  -11.6106    0.0000 O   0  0  0  0  0  0  0  0  0  0  0  0
   -8.7030  -10.1334    0.0000 C   0  0  0  0  0  0  0  0  0  0  0  0
  -10.1125   -9.6203    0.0000 C   0  0  0  0  0  0  0  0  0  0  0  0
   -7.5460  -13.5331    0.0000 O   0  0  0  0  0  0  0  0  0  0  0  0
   -9.0232  -13.7936    0.0000 C   0  0  0  0  0  0  0  0  0  0  0  0
   -9.5363  -15.2031    0.0000 C   0  0  0  0  0  0  0  0  0  0  0  0
   -6.5200  -10.7141    0.0000 O   0  0  0  0  0  0  0  0  0  0  0  0
   -7.4841   -9.5650    0.0000 C   0  0  0  0  0  0  0  0  0  0  0  0
   -6.9711   -8.1555    0.0000 C   0  0  0  0  0  0  0  0  0  0  0  0
    2.9410   -8.8418    0.0000 C   0  0  0  0  0  0  0  0  0  0  0  0
    1.5314   -8.3287    0.0000 O   0  0  0  0  0  0  0  0  0  0  0  0
    4.0900   -7.8776    0.0000 N   0  0  0  0  0  0  0  0  0  0  0  0
    3.8296   -6.4004    0.0000 C   0  0  0  0  0  0  0  0  0  0  0  0
    2.4200   -5.8874    0.0000 C   0  0  0  0  0  0  0  0  0  0  0  0
    1.2709   -6.8515    0.0000 O   0  0  0  0  0  0  0  0  0  0  0  0
    2.1595   -4.4101    0.0000 C   0  0  0  0  0  0  0  0  0  0  0  0
    0.7500   -3.8971    0.0000 P   0  0  0  0  0  0  0  0  0  0  0  0
    0.4895   -5.3743    0.0000 O   0  0  0  0  0  0  0  0  0  0  0  0
    1.5000   -2.5981    0.0000 O   0  0  0  0  0  0  0  0  0  0  0  0
    0.7500   -1.2990    0.0000 C   0  0  0  0  0  0  0  0  0  0  0  0
    1.5000    0.0000    0.0000 C   0  0  0  0  0  0  0  0  0  0  0  0
    0.7500    1.2990    0.0000 C   0  0  0  0  0  0  0  0  0  0  0  0
   -0.7500    1.2990    0.0000 C   0  0  0  0  0  0  0  0  0  0  0  0
   -1.5000    0.0000    0.0000 C   0  0  0  0  0  0  0  0  0  0  0  0
   -0.7500   -1.2990    0.0000 C   0  0  0  0  0  0  0  0  0  0  0  0
   -1.5000   -2.5981    0.0000 C   0  0  0  0  0  0  0  0  0  0  0  0
   -3.0000   -2.5981    0.0000 C   0  0  0  0  0  0  0  0  0  0  0  0
   -3.7500   -3.8971    0.0000 C   0  0  0  0  0  0  0  0  0  0  0  0
   -3.0000   -5.1962    0.0000 C   0  0  0  0  0  0  0  0  0  0  0  0
   -1.5000   -5.1962    0.0000 C   0  0  0  0  0  0  0  0  0  0  0  0
   -0.7500   -3.8971    0.0000 C   0  0  0  0  0  0  0  0  0  0  0  0
    5.4996   -8.3906    0.0000 C   0  0  0  0  0  0  0  0  0  0  0  0
    6.6486   -7.4264    0.0000 O   0  0  0  0  0  0  0  0  0  0  0  0
  1  2  2  0
  2  3  1  0
  3  4  1  0
  4  5  1  0
  5  6  1  0
  6  7  1  0
  7  8  1  0
  8  9  1  0
  9 10  1  0
 10 11  1  0
 11 12  1  0
 12 13  1  0
 13 14  1  0
 11 15  1  0
 15 16  1  0
 16 17  1  0
 11 18  1  0
 18 19  1  0
 19 20  1  0
  5 21  1  0
 21 22  1  0
 22 23  1  0
 23 24  2  0
 23 25  1  0
 25 26  1  0
 26 27  1  0
 27 28  1  0
 27 29  1  0
 29 30  1  0
 30 31  1  0
 31 32  1  0
 32 33  1  0
 33 34  1  0
 34 35  1  0
 35 36  1  0
 36 37  1  0
 34 38  1  0
 38 39  1  0
 39 40  1  0
 34 41  1  0
 41 42  1  0
 42 43  1  0
 25 44  1  0
 44 45  2  0
 44 46  1  0
 46 47  1  0
 47 48  1  0
 48 49  1  0
 48 50  1  0
 50 51  1  0
 51 52  2  0
 51 53  1  0
 53 54  1  0
 54 55  2  0
 55 56  1  0
 56 57  2  0
 57 58  1  0
 58 59  2  0
 59 60  1  0
 60 61  2  0
 61 62  1  0
 62 63  2  0
 63 64  1  0
 64 65  2  0
 46 66  1  0
 66 67  2  0
 66 22  1  0
 65 51  1  0
 59 54  1  0
 65 60  1  0
M  END
>  <Candidate_ID>  (364) 
CAND_R2_364

>  <Candidate_Name>  (364) 
TDA-OH-allyl

>  <Parent_Seed_ID>  (364) 
TRAIN_010

>  <Parent_Name>  (364) 
TDA

>  <Transformation_Code>  (364) 
OH_allyl

>  <Design_Family>  (364) 
P-N-Si

>  <Preparation_Type>  (364) 
Additive

>  <Synthesis_Level>  (364) 
B

>  <Parent_Tanimoto_r3>  (364) 
0.8076923076923077

>  <Max_Train_Tanimoto_r3>  (364) 
0.8076923076923077

>  <Risk_Flags>  (364) 
none

$$$$
CAND_R2_365 | TDA-OH-allyl-2
     RDKit          2D

 67 70  0  0  0  0  0  0  0  0999 V2000
    4.1972   -1.0046    0.0000 C   0  0  0  0  0  0  0  0  0  0  0  0
    3.0481   -1.9688    0.0000 C   0  0  0  0  0  0  0  0  0  0  0  0
    3.3086   -3.4460    0.0000 C   0  0  0  0  0  0  0  0  0  0  0  0
    2.1595   -4.4101    0.0000 O   0  0  0  0  0  0  0  0  0  0  0  0
    2.4200   -5.8874    0.0000 C   0  0  0  0  0  0  0  0  0  0  0  0
    3.8296   -6.4004    0.0000 C   0  0  0  0  0  0  0  0  0  0  0  0
    4.0900   -7.8776    0.0000 N   0  0  0  0  0  0  0  0  0  0  0  0
    2.9410   -8.8418    0.0000 C   0  0  0  0  0  0  0  0  0  0  0  0
    1.5314   -8.3287    0.0000 O   0  0  0  0  0  0  0  0  0  0  0  0
    3.2014  -10.3190    0.0000 N   0  0  0  0  0  0  0  0  0  0  0  0
    2.0524  -11.2832    0.0000 C   0  0  0  0  0  0  0  0  0  0  0  0
    2.3128  -12.7604    0.0000 C   0  0  0  0  0  0  0  0  0  0  0  0
    3.7224  -13.2734    0.0000 O   0  0  0  0  0  0  0  0  0  0  0  0
    1.1638  -13.7246    0.0000 C   0  0  0  0  0  0  0  0  0  0  0  0
    1.4242  -15.2018    0.0000 N   0  0  0  0  0  0  0  0  0  0  0  0
    0.2752  -16.1660    0.0000 C   0  0  0  0  0  0  0  0  0  0  0  0
    0.5356  -17.6432    0.0000 C   0  0  0  0  0  0  0  0  0  0  0  0
   -0.6134  -18.6074    0.0000 C   0  0  0  0  0  0  0  0  0  0  0  0
   -0.3529  -20.0846    0.0000 Si  0  0  0  0  0  4  0  0  0  0  0  0
   -0.0925  -21.5618    0.0000 O   0  0  0  0  0  0  0  0  0  0  0  0
    1.3171  -22.0748    0.0000 C   0  0  0  0  0  0  0  0  0  0  0  0
    1.5775  -23.5520    0.0000 C   0  0  0  0  0  0  0  0  0  0  0  0
   -1.8302  -20.3450    0.0000 O   0  0  0  0  0  0  0  0  0  0  0  0
   -2.3432  -21.7546    0.0000 C   0  0  0  0  0  0  0  0  0  0  0  0
   -3.8204  -22.0150    0.0000 C   0  0  0  0  0  0  0  0  0  0  0  0
    1.1243  -19.8241    0.0000 O   0  0  0  0  0  0  0  0  0  0  0  0
    2.0884  -20.9732    0.0000 C   0  0  0  0  0  0  0  0  0  0  0  0
    3.5657  -20.7127    0.0000 C   0  0  0  0  0  0  0  0  0  0  0  0
    4.6110  -10.8320    0.0000 C   0  0  0  0  0  0  0  0  0  0  0  0
    4.8714  -12.3092    0.0000 O   0  0  0  0  0  0  0  0  0  0  0  0
    5.7600   -9.8678    0.0000 N   0  0  0  0  0  0  0  0  0  0  0  0
    7.1696  -10.3809    0.0000 C   0  0  0  0  0  0  0  0  0  0  0  0
    8.3186   -9.4167    0.0000 C   0  0  0  0  0  0  0  0  0  0  0  0
    8.0582   -7.9395    0.0000 O   0  0  0  0  0  0  0  0  0  0  0  0
    9.7282   -9.9297    0.0000 C   0  0  0  0  0  0  0  0  0  0  0  0
   10.8772   -8.9655    0.0000 N   0  0  0  0  0  0  0  0  0  0  0  0
   12.2868   -9.4786    0.0000 C   0  0  0  0  0  0  0  0  0  0  0  0
   13.4359   -8.5144    0.0000 C   0  0  0  0  0  0  0  0  0  0  0  0
   14.8454   -9.0274    0.0000 C   0  0  0  0  0  0  0  0  0  0  0  0
   15.9945   -8.0632    0.0000 Si  0  0  0  0  0  4  0  0  0  0  0  0
   17.1435   -7.0991    0.0000 O   0  0  0  0  0  0  0  0  0  0  0  0
   16.8831   -5.6218    0.0000 C   0  0  0  0  0  0  0  0  0  0  0  0
   18.0321   -4.6577    0.0000 C   0  0  0  0  0  0  0  0  0  0  0  0
   16.9586   -9.2123    0.0000 O   0  0  0  0  0  0  0  0  0  0  0  0
   18.4358   -8.9518    0.0000 C   0  0  0  0  0  0  0  0  0  0  0  0
   19.4000  -10.1009    0.0000 C   0  0  0  0  0  0  0  0  0  0  0  0
   15.0303   -6.9142    0.0000 O   0  0  0  0  0  0  0  0  0  0  0  0
   15.5433   -5.5046    0.0000 C   0  0  0  0  0  0  0  0  0  0  0  0
   14.5791   -4.3556    0.0000 C   0  0  0  0  0  0  0  0  0  0  0  0
    5.4996   -8.3906    0.0000 C   0  0  0  0  0  0  0  0  0  0  0  0
    6.6486   -7.4264    0.0000 O   0  0  0  0  0  0  0  0  0  0  0  0
    1.2709   -6.8515    0.0000 C   0  0  0  0  0  0  0  0  0  0  0  0
   -0.1386   -6.3385    0.0000 P   0  0  0  0  0  0  0  0  0  0  0  0
    0.6114   -5.0395    0.0000 O   0  0  0  0  0  0  0  0  0  0  0  0
   -0.3991   -7.8157    0.0000 O   0  0  0  0  0  0  0  0  0  0  0  0
   -1.8086   -8.3287    0.0000 C   0  0  0  0  0  0  0  0  0  0  0  0
   -2.0691   -9.8060    0.0000 C   0  0  0  0  0  0  0  0  0  0  0  0
   -3.4786  -10.3190    0.0000 C   0  0  0  0  0  0  0  0  0  0  0  0
   -4.6277   -9.3548    0.0000 C   0  0  0  0  0  0  0  0  0  0  0  0
   -4.3672   -7.8776    0.0000 C   0  0  0  0  0  0  0  0  0  0  0  0
   -2.9577   -7.3646    0.0000 C   0  0  0  0  0  0  0  0  0  0  0  0
   -2.6972   -5.8874    0.0000 C   0  0  0  0  0  0  0  0  0  0  0  0
   -3.8463   -4.9232    0.0000 C   0  0  0  0  0  0  0  0  0  0  0  0
   -3.5858   -3.4460    0.0000 C   0  0  0  0  0  0  0  0  0  0  0  0
   -2.1763   -2.9329    0.0000 C   0  0  0  0  0  0  0  0  0  0  0  0
   -1.0272   -3.8971    0.0000 C   0  0  0  0  0  0  0  0  0  0  0  0
   -1.2877   -5.3743    0.0000 C   0  0  0  0  0  0  0  0  0  0  0  0
  1  2  2  0
  2  3  1  0
  3  4  1  0
  4  5  1  0
  5  6  1  0
  6  7  1  0
  7  8  1  0
  8  9  2  0
  8 10  1  0
 10 11  1  0
 11 12  1  0
 12 13  1  0
 12 14  1  0
 14 15  1  0
 15 16  1  0
 16 17  1  0
 17 18  1  0
 18 19  1  0
 19 20  1  0
 20 21  1  0
 21 22  1  0
 19 23  1  0
 23 24  1  0
 24 25  1  0
 19 26  1  0
 26 27  1  0
 27 28  1  0
 10 29  1  0
 29 30  2  0
 29 31  1  0
 31 32  1  0
 32 33  1  0
 33 34  1  0
 33 35  1  0
 35 36  1  0
 36 37  1  0
 37 38  1  0
 38 39  1  0
 39 40  1  0
 40 41  1  0
 41 42  1  0
 42 43  1  0
 40 44  1  0
 44 45  1  0
 45 46  1  0
 40 47  1  0
 47 48  1  0
 48 49  1  0
 31 50  1  0
 50 51  2  0
  5 52  1  0
 52 53  1  0
 53 54  2  0
 53 55  1  0
 55 56  1  0
 56 57  2  0
 57 58  1  0
 58 59  2  0
 59 60  1  0
 60 61  2  0
 61 62  1  0
 62 63  2  0
 63 64  1  0
 64 65  2  0
 65 66  1  0
 66 67  2  0
 50  7  1  0
 67 53  1  0
 61 56  1  0
 67 62  1  0
M  END
>  <Candidate_ID>  (365) 
CAND_R2_365

>  <Candidate_Name>  (365) 
TDA-OH-allyl-2

>  <Parent_Seed_ID>  (365) 
TRAIN_010

>  <Parent_Name>  (365) 
TDA

>  <Transformation_Code>  (365) 
OH_allyl

>  <Design_Family>  (365) 
P-N-Si

>  <Preparation_Type>  (365) 
Additive

>  <Synthesis_Level>  (365) 
B

>  <Parent_Tanimoto_r3>  (365) 
0.75

>  <Max_Train_Tanimoto_r3>  (365) 
0.75

>  <Risk_Flags>  (365) 
none

$$$$
CAND_R2_366 | TDA-OH-allyl-all
     RDKit          2D

 73 76  0  0  0  0  0  0  0  0999 V2000
    5.6529  -16.7409    0.0000 C   0  0  0  0  0  0  0  0  0  0  0  0
    5.3924  -15.2637    0.0000 C   0  0  0  0  0  0  0  0  0  0  0  0
    6.5415  -14.2995    0.0000 C   0  0  0  0  0  0  0  0  0  0  0  0
    6.2810  -12.8223    0.0000 O   0  0  0  0  0  0  0  0  0  0  0  0
    7.4300  -11.8581    0.0000 C   0  0  0  0  0  0  0  0  0  0  0  0
    8.8396  -12.3711    0.0000 C   0  0  0  0  0  0  0  0  0  0  0  0
    9.1001  -13.8483    0.0000 N   0  0  0  0  0  0  0  0  0  0  0  0
   10.5096  -14.3614    0.0000 C   0  0  0  0  0  0  0  0  0  0  0  0
   10.7701  -15.8386    0.0000 C   0  0  0  0  0  0  0  0  0  0  0  0
   12.1796  -16.3516    0.0000 C   0  0  0  0  0  0  0  0  0  0  0  0
   12.4401  -17.8288    0.0000 Si  0  0  0  0  0  4  0  0  0  0  0  0
   12.7006  -19.3060    0.0000 O   0  0  0  0  0  0  0  0  0  0  0  0
   11.5515  -20.2702    0.0000 C   0  0  0  0  0  0  0  0  0  0  0  0
   11.8120  -21.7474    0.0000 C   0  0  0  0  0  0  0  0  0  0  0  0
   13.9173  -17.5683    0.0000 O   0  0  0  0  0  0  0  0  0  0  0  0
   14.8815  -18.7174    0.0000 C   0  0  0  0  0  0  0  0  0  0  0  0
   16.3587  -18.4569    0.0000 C   0  0  0  0  0  0  0  0  0  0  0  0
   10.9629  -18.0893    0.0000 O   0  0  0  0  0  0  0  0  0  0  0  0
   10.4498  -19.4988    0.0000 C   0  0  0  0  0  0  0  0  0  0  0  0
    8.9726  -19.7593    0.0000 C   0  0  0  0  0  0  0  0  0  0  0  0
    7.1696  -10.3809    0.0000 C   0  0  0  0  0  0  0  0  0  0  0  0
    5.7600   -9.8678    0.0000 N   0  0  0  0  0  0  0  0  0  0  0  0
    4.6110  -10.8320    0.0000 C   0  0  0  0  0  0  0  0  0  0  0  0
    4.8714  -12.3092    0.0000 O   0  0  0  0  0  0  0  0  0  0  0  0
    3.2014  -10.3190    0.0000 N   0  0  0  0  0  0  0  0  0  0  0  0
    2.0524  -11.2832    0.0000 C   0  0  0  0  0  0  0  0  0  0  0  0
    0.6428  -10.7701    0.0000 C   0  0  0  0  0  0  0  0  0  0  0  0
   -0.5062  -11.7343    0.0000 C   0  0  0  0  0  0  0  0  0  0  0  0
   -1.9158  -11.2213    0.0000 N   0  0  0  0  0  0  0  0  0  0  0  0
   -3.0648  -12.1855    0.0000 C   0  0  0  0  0  0  0  0  0  0  0  0
   -4.4744  -11.6724    0.0000 C   0  0  0  0  0  0  0  0  0  0  0  0
   -5.6235  -12.6366    0.0000 C   0  0  0  0  0  0  0  0  0  0  0  0
   -7.0330  -12.1236    0.0000 Si  0  0  0  0  0  4  0  0  0  0  0  0
   -8.4425  -11.6106    0.0000 O   0  0  0  0  0  0  0  0  0  0  0  0
   -8.7030  -10.1334    0.0000 C   0  0  0  0  0  0  0  0  0  0  0  0
  -10.1125   -9.6203    0.0000 C   0  0  0  0  0  0  0  0  0  0  0  0
   -7.5460  -13.5331    0.0000 O   0  0  0  0  0  0  0  0  0  0  0  0
   -9.0232  -13.7936    0.0000 C   0  0  0  0  0  0  0  0  0  0  0  0
   -9.5363  -15.2031    0.0000 C   0  0  0  0  0  0  0  0  0  0  0  0
   -6.5200  -10.7141    0.0000 O   0  0  0  0  0  0  0  0  0  0  0  0
   -7.4841   -9.5650    0.0000 C   0  0  0  0  0  0  0  0  0  0  0  0
   -6.9711   -8.1555    0.0000 C   0  0  0  0  0  0  0  0  0  0  0  0
    0.3824   -9.2929    0.0000 O   0  0  0  0  0  0  0  0  0  0  0  0
   -1.0272   -8.7799    0.0000 C   0  0  0  0  0  0  0  0  0  0  0  0
   -1.2877   -7.3027    0.0000 C   0  0  0  0  0  0  0  0  0  0  0  0
   -2.6972   -6.7897    0.0000 C   0  0  0  0  0  0  0  0  0  0  0  0
    2.9410   -8.8418    0.0000 C   0  0  0  0  0  0  0  0  0  0  0  0
    1.5314   -8.3287    0.0000 O   0  0  0  0  0  0  0  0  0  0  0  0
    4.0900   -7.8776    0.0000 N   0  0  0  0  0  0  0  0  0  0  0  0
    3.8296   -6.4004    0.0000 C   0  0  0  0  0  0  0  0  0  0  0  0
    2.4200   -5.8874    0.0000 C   0  0  0  0  0  0  0  0  0  0  0  0
    2.1595   -4.4101    0.0000 C   0  0  0  0  0  0  0  0  0  0  0  0
    3.3086   -3.4460    0.0000 P   0  0  0  0  0  0  0  0  0  0  0  0
    4.0586   -4.7450    0.0000 O   0  0  0  0  0  0  0  0  0  0  0  0
    2.1595   -2.4818    0.0000 O   0  0  0  0  0  0  0  0  0  0  0  0
    2.4200   -1.0046    0.0000 C   0  0  0  0  0  0  0  0  0  0  0  0
    1.2709   -0.0404    0.0000 C   0  0  0  0  0  0  0  0  0  0  0  0
    1.5314    1.4368    0.0000 C   0  0  0  0  0  0  0  0  0  0  0  0
    2.9410    1.9499    0.0000 C   0  0  0  0  0  0  0  0  0  0  0  0
    4.0900    0.9857    0.0000 C   0  0  0  0  0  0  0  0  0  0  0  0
    3.8296   -0.4915    0.0000 C   0  0  0  0  0  0  0  0  0  0  0  0
    4.9786   -1.4557    0.0000 C   0  0  0  0  0  0  0  0  0  0  0  0
    6.3882   -0.9427    0.0000 C   0  0  0  0  0  0  0  0  0  0  0  0
    7.5372   -1.9069    0.0000 C   0  0  0  0  0  0  0  0  0  0  0  0
    7.2768   -3.3841    0.0000 C   0  0  0  0  0  0  0  0  0  0  0  0
    5.8672   -3.8971    0.0000 C   0  0  0  0  0  0  0  0  0  0  0  0
    4.7181   -2.9329    0.0000 C   0  0  0  0  0  0  0  0  0  0  0  0
    1.2709   -6.8515    0.0000 O   0  0  0  0  0  0  0  0  0  0  0  0
   -0.1386   -6.3385    0.0000 C   0  0  0  0  0  0  0  0  0  0  0  0
   -0.3991   -4.8613    0.0000 C   0  0  0  0  0  0  0  0  0  0  0  0
   -1.8086   -4.3483    0.0000 C   0  0  0  0  0  0  0  0  0  0  0  0
    5.4996   -8.3906    0.0000 C   0  0  0  0  0  0  0  0  0  0  0  0
    6.6486   -7.4264    0.0000 O   0  0  0  0  0  0  0  0  0  0  0  0
  1  2  2  0
  2  3  1  0
  3  4  1  0
  4  5  1  0
  5  6  1  0
  6  7  1  0
  7  8  1  0
  8  9  1  0
  9 10  1  0
 10 11  1  0
 11 12  1  0
 12 13  1  0
 13 14  1  0
 11 15  1  0
 15 16  1  0
 16 17  1  0
 11 18  1  0
 18 19  1  0
 19 20  1  0
  5 21  1  0
 21 22  1  0
 22 23  1  0
 23 24  2  0
 23 25  1  0
 25 26  1  0
 26 27  1  0
 27 28  1  0
 28 29  1  0
 29 30  1  0
 30 31  1  0
 31 32  1  0
 32 33  1  0
 33 34  1  0
 34 35  1  0
 35 36  1  0
 33 37  1  0
 37 38  1  0
 38 39  1  0
 33 40  1  0
 40 41  1  0
 41 42  1  0
 27 43  1  0
 43 44  1  0
 44 45  1  0
 45 46  2  0
 25 47  1  0
 47 48  2  0
 47 49  1  0
 49 50  1  0
 50 51  1  0
 51 52  1  0
 52 53  1  0
 53 54  2  0
 53 55  1  0
 55 56  1  0
 56 57  2  0
 57 58  1  0
 58 59  2  0
 59 60  1  0
 60 61  2  0
 61 62  1  0
 62 63  2  0
 63 64  1  0
 64 65  2  0
 65 66  1  0
 66 67  2  0
 51 68  1  0
 68 69  1  0
 69 70  1  0
 70 71  2  0
 49 72  1  0
 72 73  2  0
 72 22  1  0
 67 53  1  0
 61 56  1  0
 67 62  1  0
M  END
>  <Candidate_ID>  (366) 
CAND_R2_366

>  <Candidate_Name>  (366) 
TDA-OH-allyl-all

>  <Parent_Seed_ID>  (366) 
TRAIN_010

>  <Parent_Name>  (366) 
TDA

>  <Transformation_Code>  (366) 
OH_allyl_all

>  <Design_Family>  (366) 
P-N-Si

>  <Preparation_Type>  (366) 
Additive

>  <Synthesis_Level>  (366) 
B

>  <Parent_Tanimoto_r3>  (366) 
0.6216216216216216

>  <Max_Train_Tanimoto_r3>  (366) 
0.6216216216216216

>  <Risk_Flags>  (366) 
large structural change from parent; candidate may be outside strict in-domain threshold

$$$$
CAND_R2_367 | TDA-NH-methyl
     RDKit          2D

 65 68  0  0  0  0  0  0  0  0999 V2000
   11.8120  -21.7474    0.0000 C   0  0  0  0  0  0  0  0  0  0  0  0
   11.5515  -20.2702    0.0000 C   0  0  0  0  0  0  0  0  0  0  0  0
   12.7006  -19.3060    0.0000 O   0  0  0  0  0  0  0  0  0  0  0  0
   12.4401  -17.8288    0.0000 Si  0  0  0  0  0  4  0  0  0  0  0  0
   12.1796  -16.3516    0.0000 C   0  0  0  0  0  0  0  0  0  0  0  0
   10.7701  -15.8386    0.0000 C   0  0  0  0  0  0  0  0  0  0  0  0
   10.5096  -14.3614    0.0000 C   0  0  0  0  0  0  0  0  0  0  0  0
    9.1001  -13.8483    0.0000 N   0  0  0  0  0  0  0  0  0  0  0  0
    8.8396  -12.3711    0.0000 C   0  0  0  0  0  0  0  0  0  0  0  0
    7.4300  -11.8581    0.0000 C   0  0  0  0  0  0  0  0  0  0  0  0
    6.2810  -12.8223    0.0000 O   0  0  0  0  0  0  0  0  0  0  0  0
    7.1696  -10.3809    0.0000 C   0  0  0  0  0  0  0  0  0  0  0  0
    5.7600   -9.8678    0.0000 N   0  0  0  0  0  0  0  0  0  0  0  0
    4.6110  -10.8320    0.0000 C   0  0  0  0  0  0  0  0  0  0  0  0
    4.8714  -12.3092    0.0000 O   0  0  0  0  0  0  0  0  0  0  0  0
    3.2014  -10.3190    0.0000 N   0  0  0  0  0  0  0  0  0  0  0  0
    2.0524  -11.2832    0.0000 C   0  0  0  0  0  0  0  0  0  0  0  0
    0.6428  -10.7701    0.0000 C   0  0  0  0  0  0  0  0  0  0  0  0
    0.3824   -9.2929    0.0000 O   0  0  0  0  0  0  0  0  0  0  0  0
   -0.5062  -11.7343    0.0000 C   0  0  0  0  0  0  0  0  0  0  0  0
   -1.9158  -11.2213    0.0000 N   0  0  0  0  0  0  0  0  0  0  0  0
   -3.0648  -12.1855    0.0000 C   0  0  0  0  0  0  0  0  0  0  0  0
   -2.1763   -9.7441    0.0000 C   0  0  0  0  0  0  0  0  0  0  0  0
   -3.5858   -9.2311    0.0000 C   0  0  0  0  0  0  0  0  0  0  0  0
   -3.8463   -7.7538    0.0000 C   0  0  0  0  0  0  0  0  0  0  0  0
   -5.2558   -7.2408    0.0000 Si  0  0  0  0  0  4  0  0  0  0  0  0
   -6.6653   -6.7278    0.0000 O   0  0  0  0  0  0  0  0  0  0  0  0
   -7.8144   -7.6920    0.0000 C   0  0  0  0  0  0  0  0  0  0  0  0
   -9.2240   -7.1789    0.0000 C   0  0  0  0  0  0  0  0  0  0  0  0
   -4.7428   -5.8313    0.0000 O   0  0  0  0  0  0  0  0  0  0  0  0
   -5.7070   -4.6822    0.0000 C   0  0  0  0  0  0  0  0  0  0  0  0
   -5.1939   -3.2727    0.0000 C   0  0  0  0  0  0  0  0  0  0  0  0
   -5.7688   -8.6503    0.0000 O   0  0  0  0  0  0  0  0  0  0  0  0
   -7.2460   -8.9108    0.0000 C   0  0  0  0  0  0  0  0  0  0  0  0
   -7.7591  -10.3204    0.0000 C   0  0  0  0  0  0  0  0  0  0  0  0
    2.9410   -8.8418    0.0000 C   0  0  0  0  0  0  0  0  0  0  0  0
    1.5314   -8.3287    0.0000 O   0  0  0  0  0  0  0  0  0  0  0  0
    4.0900   -7.8776    0.0000 N   0  0  0  0  0  0  0  0  0  0  0  0
    3.8296   -6.4004    0.0000 C   0  0  0  0  0  0  0  0  0  0  0  0
    2.4200   -5.8874    0.0000 C   0  0  0  0  0  0  0  0  0  0  0  0
    1.2709   -6.8515    0.0000 O   0  0  0  0  0  0  0  0  0  0  0  0
    2.1595   -4.4101    0.0000 C   0  0  0  0  0  0  0  0  0  0  0  0
    0.7500   -3.8971    0.0000 P   0  0  0  0  0  0  0  0  0  0  0  0
    0.4895   -5.3743    0.0000 O   0  0  0  0  0  0  0  0  0  0  0  0
    1.5000   -2.5981    0.0000 O   0  0  0  0  0  0  0  0  0  0  0  0
    0.7500   -1.2990    0.0000 C   0  0  0  0  0  0  0  0  0  0  0  0
    1.5000    0.0000    0.0000 C   0  0  0  0  0  0  0  0  0  0  0  0
    0.7500    1.2990    0.0000 C   0  0  0  0  0  0  0  0  0  0  0  0
   -0.7500    1.2990    0.0000 C   0  0  0  0  0  0  0  0  0  0  0  0
   -1.5000    0.0000    0.0000 C   0  0  0  0  0  0  0  0  0  0  0  0
   -0.7500   -1.2990    0.0000 C   0  0  0  0  0  0  0  0  0  0  0  0
   -1.5000   -2.5981    0.0000 C   0  0  0  0  0  0  0  0  0  0  0  0
   -3.0000   -2.5981    0.0000 C   0  0  0  0  0  0  0  0  0  0  0  0
   -3.7500   -3.8971    0.0000 C   0  0  0  0  0  0  0  0  0  0  0  0
   -3.0000   -5.1962    0.0000 C   0  0  0  0  0  0  0  0  0  0  0  0
   -1.5000   -5.1962    0.0000 C   0  0  0  0  0  0  0  0  0  0  0  0
   -0.7500   -3.8971    0.0000 C   0  0  0  0  0  0  0  0  0  0  0  0
    5.4996   -8.3906    0.0000 C   0  0  0  0  0  0  0  0  0  0  0  0
    6.6486   -7.4264    0.0000 O   0  0  0  0  0  0  0  0  0  0  0  0
   13.9173  -17.5683    0.0000 O   0  0  0  0  0  0  0  0  0  0  0  0
   14.8815  -18.7174    0.0000 C   0  0  0  0  0  0  0  0  0  0  0  0
   16.3587  -18.4569    0.0000 C   0  0  0  0  0  0  0  0  0  0  0  0
   10.9629  -18.0893    0.0000 O   0  0  0  0  0  0  0  0  0  0  0  0
   10.4498  -19.4988    0.0000 C   0  0  0  0  0  0  0  0  0  0  0  0
    8.9726  -19.7593    0.0000 C   0  0  0  0  0  0  0  0  0  0  0  0
  1  2  1  0
  2  3  1  0
  3  4  1  0
  4  5  1  0
  5  6  1  0
  6  7  1  0
  7  8  1  0
  8  9  1  0
  9 10  1  0
 10 11  1  0
 10 12  1  0
 12 13  1  0
 13 14  1  0
 14 15  2  0
 14 16  1  0
 16 17  1  0
 17 18  1  0
 18 19  1  0
 18 20  1  0
 20 21  1  0
 21 22  1  0
 21 23  1  0
 23 24  1  0
 24 25  1  0
 25 26  1  0
 26 27  1  0
 27 28  1  0
 28 29  1  0
 26 30  1  0
 30 31  1  0
 31 32  1  0
 26 33  1  0
 33 34  1  0
 34 35  1  0
 16 36  1  0
 36 37  2  0
 36 38  1  0
 38 39  1  0
 39 40  1  0
 40 41  1  0
 40 42  1  0
 42 43  1  0
 43 44  2  0
 43 45  1  0
 45 46  1  0
 46 47  2  0
 47 48  1  0
 48 49  2  0
 49 50  1  0
 50 51  2  0
 51 52  1  0
 52 53  2  0
 53 54  1  0
 54 55  2  0
 55 56  1  0
 56 57  2  0
 38 58  1  0
 58 59  2  0
  4 60  1  0
 60 61  1  0
 61 62  1  0
  4 63  1  0
 63 64  1  0
 64 65  1  0
 58 13  1  0
 57 43  1  0
 51 46  1  0
 57 52  1  0
M  END
>  <Candidate_ID>  (367) 
CAND_R2_367

>  <Candidate_Name>  (367) 
TDA-NH-methyl

>  <Parent_Seed_ID>  (367) 
TRAIN_010

>  <Parent_Name>  (367) 
TDA

>  <Transformation_Code>  (367) 
NH_methyl

>  <Design_Family>  (367) 
P-N-Si

>  <Preparation_Type>  (367) 
Additive

>  <Synthesis_Level>  (367) 
B

>  <Parent_Tanimoto_r3>  (367) 
0.84

>  <Max_Train_Tanimoto_r3>  (367) 
0.84

>  <Risk_Flags>  (367) 
none

$$$$
CAND_R2_368 | TDA-NH-methyl-all
     RDKit          2D

 66 69  0  0  0  0  0  0  0  0999 V2000
    9.2534  -22.1986    0.0000 C   0  0  0  0  0  0  0  0  0  0  0  0
    8.9929  -20.7214    0.0000 C   0  0  0  0  0  0  0  0  0  0  0  0
    7.5833  -20.2083    0.0000 O   0  0  0  0  0  0  0  0  0  0  0  0
    7.3229  -18.7311    0.0000 Si  0  0  0  0  0  4  0  0  0  0  0  0
    7.0624  -17.2539    0.0000 C   0  0  0  0  0  0  0  0  0  0  0  0
    8.2115  -16.2897    0.0000 C   0  0  0  0  0  0  0  0  0  0  0  0
    7.9510  -14.8125    0.0000 C   0  0  0  0  0  0  0  0  0  0  0  0
    9.1001  -13.8483    0.0000 N   0  0  0  0  0  0  0  0  0  0  0  0
   10.5096  -14.3614    0.0000 C   0  0  0  0  0  0  0  0  0  0  0  0
    8.8396  -12.3711    0.0000 C   0  0  0  0  0  0  0  0  0  0  0  0
    7.4300  -11.8581    0.0000 C   0  0  0  0  0  0  0  0  0  0  0  0
    6.2810  -12.8223    0.0000 O   0  0  0  0  0  0  0  0  0  0  0  0
    7.1696  -10.3809    0.0000 C   0  0  0  0  0  0  0  0  0  0  0  0
    5.7600   -9.8678    0.0000 N   0  0  0  0  0  0  0  0  0  0  0  0
    4.6110  -10.8320    0.0000 C   0  0  0  0  0  0  0  0  0  0  0  0
    4.8714  -12.3092    0.0000 O   0  0  0  0  0  0  0  0  0  0  0  0
    3.2014  -10.3190    0.0000 N   0  0  0  0  0  0  0  0  0  0  0  0
    2.0524  -11.2832    0.0000 C   0  0  0  0  0  0  0  0  0  0  0  0
    0.6428  -10.7701    0.0000 C   0  0  0  0  0  0  0  0  0  0  0  0
    0.3824   -9.2929    0.0000 O   0  0  0  0  0  0  0  0  0  0  0  0
   -0.5062  -11.7343    0.0000 C   0  0  0  0  0  0  0  0  0  0  0  0
   -1.9158  -11.2213    0.0000 N   0  0  0  0  0  0  0  0  0  0  0  0
   -3.0648  -12.1855    0.0000 C   0  0  0  0  0  0  0  0  0  0  0  0
   -2.1763   -9.7441    0.0000 C   0  0  0  0  0  0  0  0  0  0  0  0
   -3.5858   -9.2311    0.0000 C   0  0  0  0  0  0  0  0  0  0  0  0
   -3.8463   -7.7538    0.0000 C   0  0  0  0  0  0  0  0  0  0  0  0
   -5.2558   -7.2408    0.0000 Si  0  0  0  0  0  4  0  0  0  0  0  0
   -6.6653   -6.7278    0.0000 O   0  0  0  0  0  0  0  0  0  0  0  0
   -7.8144   -7.6920    0.0000 C   0  0  0  0  0  0  0  0  0  0  0  0
   -9.2240   -7.1789    0.0000 C   0  0  0  0  0  0  0  0  0  0  0  0
   -4.7428   -5.8313    0.0000 O   0  0  0  0  0  0  0  0  0  0  0  0
   -5.7070   -4.6822    0.0000 C   0  0  0  0  0  0  0  0  0  0  0  0
   -5.1939   -3.2727    0.0000 C   0  0  0  0  0  0  0  0  0  0  0  0
   -5.7688   -8.6503    0.0000 O   0  0  0  0  0  0  0  0  0  0  0  0
   -7.2460   -8.9108    0.0000 C   0  0  0  0  0  0  0  0  0  0  0  0
   -7.7591  -10.3204    0.0000 C   0  0  0  0  0  0  0  0  0  0  0  0
    2.9410   -8.8418    0.0000 C   0  0  0  0  0  0  0  0  0  0  0  0
    1.5314   -8.3287    0.0000 O   0  0  0  0  0  0  0  0  0  0  0  0
    4.0900   -7.8776    0.0000 N   0  0  0  0  0  0  0  0  0  0  0  0
    3.8296   -6.4004    0.0000 C   0  0  0  0  0  0  0  0  0  0  0  0
    2.4200   -5.8874    0.0000 C   0  0  0  0  0  0  0  0  0  0  0  0
    1.2709   -6.8515    0.0000 O   0  0  0  0  0  0  0  0  0  0  0  0
    2.1595   -4.4101    0.0000 C   0  0  0  0  0  0  0  0  0  0  0  0
    0.7500   -3.8971    0.0000 P   0  0  0  0  0  0  0  0  0  0  0  0
    0.4895   -5.3743    0.0000 O   0  0  0  0  0  0  0  0  0  0  0  0
    1.5000   -2.5981    0.0000 O   0  0  0  0  0  0  0  0  0  0  0  0
    0.7500   -1.2990    0.0000 C   0  0  0  0  0  0  0  0  0  0  0  0
    1.5000    0.0000    0.0000 C   0  0  0  0  0  0  0  0  0  0  0  0
    0.7500    1.2990    0.0000 C   0  0  0  0  0  0  0  0  0  0  0  0
   -0.7500    1.2990    0.0000 C   0  0  0  0  0  0  0  0  0  0  0  0
   -1.5000    0.0000    0.0000 C   0  0  0  0  0  0  0  0  0  0  0  0
   -0.7500   -1.2990    0.0000 C   0  0  0  0  0  0  0  0  0  0  0  0
   -1.5000   -2.5981    0.0000 C   0  0  0  0  0  0  0  0  0  0  0  0
   -3.0000   -2.5981    0.0000 C   0  0  0  0  0  0  0  0  0  0  0  0
   -3.7500   -3.8971    0.0000 C   0  0  0  0  0  0  0  0  0  0  0  0
   -3.0000   -5.1962    0.0000 C   0  0  0  0  0  0  0  0  0  0  0  0
   -1.5000   -5.1962    0.0000 C   0  0  0  0  0  0  0  0  0  0  0  0
   -0.7500   -3.8971    0.0000 C   0  0  0  0  0  0  0  0  0  0  0  0
    5.4996   -8.3906    0.0000 C   0  0  0  0  0  0  0  0  0  0  0  0
    6.6486   -7.4264    0.0000 O   0  0  0  0  0  0  0  0  0  0  0  0
    5.8457  -18.9916    0.0000 O   0  0  0  0  0  0  0  0  0  0  0  0
    5.3326  -20.4011    0.0000 C   0  0  0  0  0  0  0  0  0  0  0  0
    3.8554  -20.6616    0.0000 C   0  0  0  0  0  0  0  0  0  0  0  0
    8.8001  -18.4706    0.0000 O   0  0  0  0  0  0  0  0  0  0  0  0
    9.7643  -19.6197    0.0000 C   0  0  0  0  0  0  0  0  0  0  0  0
   11.2415  -19.3592    0.0000 C   0  0  0  0  0  0  0  0  0  0  0  0
  1  2  1  0
  2  3  1  0
  3  4  1  0
  4  5  1  0
  5  6  1  0
  6  7  1  0
  7  8  1  0
  8  9  1  0
  8 10  1  0
 10 11  1  0
 11 12  1  0
 11 13  1  0
 13 14  1  0
 14 15  1  0
 15 16  2  0
 15 17  1  0
 17 18  1  0
 18 19  1  0
 19 20  1  0
 19 21  1  0
 21 22  1  0
 22 23  1  0
 22 24  1  0
 24 25  1  0
 25 26  1  0
 26 27  1  0
 27 28  1  0
 28 29  1  0
 29 30  1  0
 27 31  1  0
 31 32  1  0
 32 33  1  0
 27 34  1  0
 34 35  1  0
 35 36  1  0
 17 37  1  0
 37 38  2  0
 37 39  1  0
 39 40  1  0
 40 41  1  0
 41 42  1  0
 41 43  1  0
 43 44  1  0
 44 45  2  0
 44 46  1  0
 46 47  1  0
 47 48  2  0
 48 49  1  0
 49 50  2  0
 50 51  1  0
 51 52  2  0
 52 53  1  0
 53 54  2  0
 54 55  1  0
 55 56  2  0
 56 57  1  0
 57 58  2  0
 39 59  1  0
 59 60  2  0
  4 61  1  0
 61 62  1  0
 62 63  1  0
  4 64  1  0
 64 65  1  0
 65 66  1  0
 59 14  1  0
 58 44  1  0
 52 47  1  0
 58 53  1  0
M  END
>  <Candidate_ID>  (368) 
CAND_R2_368

>  <Candidate_Name>  (368) 
TDA-NH-methyl-all

>  <Parent_Seed_ID>  (368) 
TRAIN_010

>  <Parent_Name>  (368) 
TDA

>  <Transformation_Code>  (368) 
NH_methyl_all

>  <Design_Family>  (368) 
P-N-Si

>  <Preparation_Type>  (368) 
Additive

>  <Synthesis_Level>  (368) 
B

>  <Parent_Tanimoto_r3>  (368) 
0.71

>  <Max_Train_Tanimoto_r3>  (368) 
0.71

>  <Risk_Flags>  (368) 
none

$$$$
CAND_R2_369 | TDA-NH-hydroxyethyl
     RDKit          2D

 67 70  0  0  0  0  0  0  0  0999 V2000
   11.8120  -21.7474    0.0000 C   0  0  0  0  0  0  0  0  0  0  0  0
   11.5515  -20.2702    0.0000 C   0  0  0  0  0  0  0  0  0  0  0  0
   12.7006  -19.3060    0.0000 O   0  0  0  0  0  0  0  0  0  0  0  0
   12.4401  -17.8288    0.0000 Si  0  0  0  0  0  4  0  0  0  0  0  0
   12.1796  -16.3516    0.0000 C   0  0  0  0  0  0  0  0  0  0  0  0
   10.7701  -15.8386    0.0000 C   0  0  0  0  0  0  0  0  0  0  0  0
   10.5096  -14.3614    0.0000 C   0  0  0  0  0  0  0  0  0  0  0  0
    9.1001  -13.8483    0.0000 N   0  0  0  0  0  0  0  0  0  0  0  0
    8.8396  -12.3711    0.0000 C   0  0  0  0  0  0  0  0  0  0  0  0
    7.4300  -11.8581    0.0000 C   0  0  0  0  0  0  0  0  0  0  0  0
    6.2810  -12.8223    0.0000 O   0  0  0  0  0  0  0  0  0  0  0  0
    7.1696  -10.3809    0.0000 C   0  0  0  0  0  0  0  0  0  0  0  0
    5.7600   -9.8678    0.0000 N   0  0  0  0  0  0  0  0  0  0  0  0
    4.6110  -10.8320    0.0000 C   0  0  0  0  0  0  0  0  0  0  0  0
    4.8714  -12.3092    0.0000 O   0  0  0  0  0  0  0  0  0  0  0  0
    3.2014  -10.3190    0.0000 N   0  0  0  0  0  0  0  0  0  0  0  0
    2.0524  -11.2832    0.0000 C   0  0  0  0  0  0  0  0  0  0  0  0
    0.6428  -10.7701    0.0000 C   0  0  0  0  0  0  0  0  0  0  0  0
    0.3824   -9.2929    0.0000 O   0  0  0  0  0  0  0  0  0  0  0  0
   -0.5062  -11.7343    0.0000 C   0  0  0  0  0  0  0  0  0  0  0  0
   -1.9158  -11.2213    0.0000 N   0  0  0  0  0  0  0  0  0  0  0  0
   -2.1763   -9.7441    0.0000 C   0  0  0  0  0  0  0  0  0  0  0  0
   -3.5858   -9.2311    0.0000 C   0  0  0  0  0  0  0  0  0  0  0  0
   -3.8463   -7.7538    0.0000 O   0  0  0  0  0  0  0  0  0  0  0  0
   -3.0648  -12.1855    0.0000 C   0  0  0  0  0  0  0  0  0  0  0  0
   -4.4744  -11.6724    0.0000 C   0  0  0  0  0  0  0  0  0  0  0  0
   -5.6235  -12.6366    0.0000 C   0  0  0  0  0  0  0  0  0  0  0  0
   -7.0330  -12.1236    0.0000 Si  0  0  0  0  0  4  0  0  0  0  0  0
   -8.4425  -11.6106    0.0000 O   0  0  0  0  0  0  0  0  0  0  0  0
   -8.7030  -10.1334    0.0000 C   0  0  0  0  0  0  0  0  0  0  0  0
  -10.1125   -9.6203    0.0000 C   0  0  0  0  0  0  0  0  0  0  0  0
   -7.5460  -13.5331    0.0000 O   0  0  0  0  0  0  0  0  0  0  0  0
   -9.0232  -13.7936    0.0000 C   0  0  0  0  0  0  0  0  0  0  0  0
   -9.5363  -15.2031    0.0000 C   0  0  0  0  0  0  0  0  0  0  0  0
   -6.5200  -10.7141    0.0000 O   0  0  0  0  0  0  0  0  0  0  0  0
   -7.4841   -9.5650    0.0000 C   0  0  0  0  0  0  0  0  0  0  0  0
   -6.9711   -8.1555    0.0000 C   0  0  0  0  0  0  0  0  0  0  0  0
    2.9410   -8.8418    0.0000 C   0  0  0  0  0  0  0  0  0  0  0  0
    1.5314   -8.3287    0.0000 O   0  0  0  0  0  0  0  0  0  0  0  0
    4.0900   -7.8776    0.0000 N   0  0  0  0  0  0  0  0  0  0  0  0
    3.8296   -6.4004    0.0000 C   0  0  0  0  0  0  0  0  0  0  0  0
    2.4200   -5.8874    0.0000 C   0  0  0  0  0  0  0  0  0  0  0  0
    1.2709   -6.8515    0.0000 O   0  0  0  0  0  0  0  0  0  0  0  0
    2.1595   -4.4101    0.0000 C   0  0  0  0  0  0  0  0  0  0  0  0
    0.7500   -3.8971    0.0000 P   0  0  0  0  0  0  0  0  0  0  0  0
    0.4895   -5.3743    0.0000 O   0  0  0  0  0  0  0  0  0  0  0  0
    1.5000   -2.5981    0.0000 O   0  0  0  0  0  0  0  0  0  0  0  0
    0.7500   -1.2990    0.0000 C   0  0  0  0  0  0  0  0  0  0  0  0
    1.5000    0.0000    0.0000 C   0  0  0  0  0  0  0  0  0  0  0  0
    0.7500    1.2990    0.0000 C   0  0  0  0  0  0  0  0  0  0  0  0
   -0.7500    1.2990    0.0000 C   0  0  0  0  0  0  0  0  0  0  0  0
   -1.5000    0.0000    0.0000 C   0  0  0  0  0  0  0  0  0  0  0  0
   -0.7500   -1.2990    0.0000 C   0  0  0  0  0  0  0  0  0  0  0  0
   -1.5000   -2.5981    0.0000 C   0  0  0  0  0  0  0  0  0  0  0  0
   -3.0000   -2.5981    0.0000 C   0  0  0  0  0  0  0  0  0  0  0  0
   -3.7500   -3.8971    0.0000 C   0  0  0  0  0  0  0  0  0  0  0  0
   -3.0000   -5.1962    0.0000 C   0  0  0  0  0  0  0  0  0  0  0  0
   -1.5000   -5.1962    0.0000 C   0  0  0  0  0  0  0  0  0  0  0  0
   -0.7500   -3.8971    0.0000 C   0  0  0  0  0  0  0  0  0  0  0  0
    5.4996   -8.3906    0.0000 C   0  0  0  0  0  0  0  0  0  0  0  0
    6.6486   -7.4264    0.0000 O   0  0  0  0  0  0  0  0  0  0  0  0
   13.9173  -17.5683    0.0000 O   0  0  0  0  0  0  0  0  0  0  0  0
   14.8815  -18.7174    0.0000 C   0  0  0  0  0  0  0  0  0  0  0  0
   16.3587  -18.4569    0.0000 C   0  0  0  0  0  0  0  0  0  0  0  0
   10.9629  -18.0893    0.0000 O   0  0  0  0  0  0  0  0  0  0  0  0
   10.4498  -19.4988    0.0000 C   0  0  0  0  0  0  0  0  0  0  0  0
    8.9726  -19.7593    0.0000 C   0  0  0  0  0  0  0  0  0  0  0  0
  1  2  1  0
  2  3  1  0
  3  4  1  0
  4  5  1  0
  5  6  1  0
  6  7  1  0
  7  8  1  0
  8  9  1  0
  9 10  1  0
 10 11  1  0
 10 12  1  0
 12 13  1  0
 13 14  1  0
 14 15  2  0
 14 16  1  0
 16 17  1  0
 17 18  1  0
 18 19  1  0
 18 20  1  0
 20 21  1  0
 21 22  1  0
 22 23  1  0
 23 24  1  0
 21 25  1  0
 25 26  1  0
 26 27  1  0
 27 28  1  0
 28 29  1  0
 29 30  1  0
 30 31  1  0
 28 32  1  0
 32 33  1  0
 33 34  1  0
 28 35  1  0
 35 36  1  0
 36 37  1  0
 16 38  1  0
 38 39  2  0
 38 40  1  0
 40 41  1  0
 41 42  1  0
 42 43  1  0
 42 44  1  0
 44 45  1  0
 45 46  2  0
 45 47  1  0
 47 48  1  0
 48 49  2  0
 49 50  1  0
 50 51  2  0
 51 52  1  0
 52 53  2  0
 53 54  1  0
 54 55  2  0
 55 56  1  0
 56 57  2  0
 57 58  1  0
 58 59  2  0
 40 60  1  0
 60 61  2  0
  4 62  1  0
 62 63  1  0
 63 64  1  0
  4 65  1  0
 65 66  1  0
 66 67  1  0
 60 13  1  0
 59 45  1  0
 53 48  1  0
 59 54  1  0
M  END
>  <Candidate_ID>  (369) 
CAND_R2_369

>  <Candidate_Name>  (369) 
TDA-NH-hydroxyethyl

>  <Parent_Seed_ID>  (369) 
TRAIN_010

>  <Parent_Name>  (369) 
TDA

>  <Transformation_Code>  (369) 
NH_hydroxyethyl

>  <Design_Family>  (369) 
P-N-Si

>  <Preparation_Type>  (369) 
Additive

>  <Synthesis_Level>  (369) 
B

>  <Parent_Tanimoto_r3>  (369) 
0.8076923076923077

>  <Max_Train_Tanimoto_r3>  (369) 
0.8076923076923077

>  <Risk_Flags>  (369) 
none

$$$$
CAND_R2_370 | TDA-NH-hydroxyethyl-all
     RDKit          2D

 70 73  0  0  0  0  0  0  0  0999 V2000
   11.8120  -21.7474    0.0000 C   0  0  0  0  0  0  0  0  0  0  0  0
   11.5515  -20.2702    0.0000 C   0  0  0  0  0  0  0  0  0  0  0  0
   12.7006  -19.3060    0.0000 O   0  0  0  0  0  0  0  0  0  0  0  0
   12.4401  -17.8288    0.0000 Si  0  0  0  0  0  4  0  0  0  0  0  0
   12.1796  -16.3516    0.0000 C   0  0  0  0  0  0  0  0  0  0  0  0
   10.7701  -15.8386    0.0000 C   0  0  0  0  0  0  0  0  0  0  0  0
   10.5096  -14.3614    0.0000 C   0  0  0  0  0  0  0  0  0  0  0  0
    9.1001  -13.8483    0.0000 N   0  0  0  0  0  0  0  0  0  0  0  0
    7.9510  -14.8125    0.0000 C   0  0  0  0  0  0  0  0  0  0  0  0
    8.2115  -16.2897    0.0000 C   0  0  0  0  0  0  0  0  0  0  0  0
    7.0624  -17.2539    0.0000 O   0  0  0  0  0  0  0  0  0  0  0  0
    8.8396  -12.3711    0.0000 C   0  0  0  0  0  0  0  0  0  0  0  0
    7.4300  -11.8581    0.0000 C   0  0  0  0  0  0  0  0  0  0  0  0
    6.2810  -12.8223    0.0000 O   0  0  0  0  0  0  0  0  0  0  0  0
    7.1696  -10.3809    0.0000 C   0  0  0  0  0  0  0  0  0  0  0  0
    5.7600   -9.8678    0.0000 N   0  0  0  0  0  0  0  0  0  0  0  0
    4.6110  -10.8320    0.0000 C   0  0  0  0  0  0  0  0  0  0  0  0
    4.8714  -12.3092    0.0000 O   0  0  0  0  0  0  0  0  0  0  0  0
    3.2014  -10.3190    0.0000 N   0  0  0  0  0  0  0  0  0  0  0  0
    2.0524  -11.2832    0.0000 C   0  0  0  0  0  0  0  0  0  0  0  0
    0.6428  -10.7701    0.0000 C   0  0  0  0  0  0  0  0  0  0  0  0
    0.3824   -9.2929    0.0000 O   0  0  0  0  0  0  0  0  0  0  0  0
   -0.5062  -11.7343    0.0000 C   0  0  0  0  0  0  0  0  0  0  0  0
   -1.9158  -11.2213    0.0000 N   0  0  0  0  0  0  0  0  0  0  0  0
   -2.1763   -9.7441    0.0000 C   0  0  0  0  0  0  0  0  0  0  0  0
   -3.5858   -9.2311    0.0000 C   0  0  0  0  0  0  0  0  0  0  0  0
   -3.8463   -7.7538    0.0000 O   0  0  0  0  0  0  0  0  0  0  0  0
   -3.0648  -12.1855    0.0000 C   0  0  0  0  0  0  0  0  0  0  0  0
   -4.4744  -11.6724    0.0000 C   0  0  0  0  0  0  0  0  0  0  0  0
   -5.6235  -12.6366    0.0000 C   0  0  0  0  0  0  0  0  0  0  0  0
   -7.0330  -12.1236    0.0000 Si  0  0  0  0  0  4  0  0  0  0  0  0
   -8.4425  -11.6106    0.0000 O   0  0  0  0  0  0  0  0  0  0  0  0
   -8.7030  -10.1334    0.0000 C   0  0  0  0  0  0  0  0  0  0  0  0
  -10.1125   -9.6203    0.0000 C   0  0  0  0  0  0  0  0  0  0  0  0
   -7.5460  -13.5331    0.0000 O   0  0  0  0  0  0  0  0  0  0  0  0
   -9.0232  -13.7936    0.0000 C   0  0  0  0  0  0  0  0  0  0  0  0
   -9.5363  -15.2031    0.0000 C   0  0  0  0  0  0  0  0  0  0  0  0
   -6.5200  -10.7141    0.0000 O   0  0  0  0  0  0  0  0  0  0  0  0
   -7.4841   -9.5650    0.0000 C   0  0  0  0  0  0  0  0  0  0  0  0
   -6.9711   -8.1555    0.0000 C   0  0  0  0  0  0  0  0  0  0  0  0
    2.9410   -8.8418    0.0000 C   0  0  0  0  0  0  0  0  0  0  0  0
    1.5314   -8.3287    0.0000 O   0  0  0  0  0  0  0  0  0  0  0  0
    4.0900   -7.8776    0.0000 N   0  0  0  0  0  0  0  0  0  0  0  0
    3.8296   -6.4004    0.0000 C   0  0  0  0  0  0  0  0  0  0  0  0
    2.4200   -5.8874    0.0000 C   0  0  0  0  0  0  0  0  0  0  0  0
    1.2709   -6.8515    0.0000 O   0  0  0  0  0  0  0  0  0  0  0  0
    2.1595   -4.4101    0.0000 C   0  0  0  0  0  0  0  0  0  0  0  0
    0.7500   -3.8971    0.0000 P   0  0  0  0  0  0  0  0  0  0  0  0
    0.4895   -5.3743    0.0000 O   0  0  0  0  0  0  0  0  0  0  0  0
    1.5000   -2.5981    0.0000 O   0  0  0  0  0  0  0  0  0  0  0  0
    0.7500   -1.2990    0.0000 C   0  0  0  0  0  0  0  0  0  0  0  0
    1.5000    0.0000    0.0000 C   0  0  0  0  0  0  0  0  0  0  0  0
    0.7500    1.2990    0.0000 C   0  0  0  0  0  0  0  0  0  0  0  0
   -0.7500    1.2990    0.0000 C   0  0  0  0  0  0  0  0  0  0  0  0
   -1.5000    0.0000    0.0000 C   0  0  0  0  0  0  0  0  0  0  0  0
   -0.7500   -1.2990    0.0000 C   0  0  0  0  0  0  0  0  0  0  0  0
   -1.5000   -2.5981    0.0000 C   0  0  0  0  0  0  0  0  0  0  0  0
   -3.0000   -2.5981    0.0000 C   0  0  0  0  0  0  0  0  0  0  0  0
   -3.7500   -3.8971    0.0000 C   0  0  0  0  0  0  0  0  0  0  0  0
   -3.0000   -5.1962    0.0000 C   0  0  0  0  0  0  0  0  0  0  0  0
   -1.5000   -5.1962    0.0000 C   0  0  0  0  0  0  0  0  0  0  0  0
   -0.7500   -3.8971    0.0000 C   0  0  0  0  0  0  0  0  0  0  0  0
    5.4996   -8.3906    0.0000 C   0  0  0  0  0  0  0  0  0  0  0  0
    6.6486   -7.4264    0.0000 O   0  0  0  0  0  0  0  0  0  0  0  0
   13.9173  -17.5683    0.0000 O   0  0  0  0  0  0  0  0  0  0  0  0
   14.8815  -18.7174    0.0000 C   0  0  0  0  0  0  0  0  0  0  0  0
   16.3587  -18.4569    0.0000 C   0  0  0  0  0  0  0  0  0  0  0  0
   10.9629  -18.0893    0.0000 O   0  0  0  0  0  0  0  0  0  0  0  0
   10.4498  -19.4988    0.0000 C   0  0  0  0  0  0  0  0  0  0  0  0
    8.9726  -19.7593    0.0000 C   0  0  0  0  0  0  0  0  0  0  0  0
  1  2  1  0
  2  3  1  0
  3  4  1  0
  4  5  1  0
  5  6  1  0
  6  7  1  0
  7  8  1  0
  8  9  1  0
  9 10  1  0
 10 11  1  0
  8 12  1  0
 12 13  1  0
 13 14  1  0
 13 15  1  0
 15 16  1  0
 16 17  1  0
 17 18  2  0
 17 19  1  0
 19 20  1  0
 20 21  1  0
 21 22  1  0
 21 23  1  0
 23 24  1  0
 24 25  1  0
 25 26  1  0
 26 27  1  0
 24 28  1  0
 28 29  1  0
 29 30  1  0
 30 31  1  0
 31 32  1  0
 32 33  1  0
 33 34  1  0
 31 35  1  0
 35 36  1  0
 36 37  1  0
 31 38  1  0
 38 39  1  0
 39 40  1  0
 19 41  1  0
 41 42  2  0
 41 43  1  0
 43 44  1  0
 44 45  1  0
 45 46  1  0
 45 47  1  0
 47 48  1  0
 48 49  2  0
 48 50  1  0
 50 51  1  0
 51 52  2  0
 52 53  1  0
 53 54  2  0
 54 55  1  0
 55 56  2  0
 56 57  1  0
 57 58  2  0
 58 59  1  0
 59 60  2  0
 60 61  1  0
 61 62  2  0
 43 63  1  0
 63 64  2  0
  4 65  1  0
 65 66  1  0
 66 67  1  0
  4 68  1  0
 68 69  1  0
 69 70  1  0
 63 16  1  0
 62 48  1  0
 56 51  1  0
 62 57  1  0
M  END
>  <Candidate_ID>  (370) 
CAND_R2_370

>  <Candidate_Name>  (370) 
TDA-NH-hydroxyethyl-all

>  <Parent_Seed_ID>  (370) 
TRAIN_010

>  <Parent_Name>  (370) 
TDA

>  <Transformation_Code>  (370) 
NH_hydroxyethyl_all

>  <Design_Family>  (370) 
P-N-Si

>  <Preparation_Type>  (370) 
Additive

>  <Synthesis_Level>  (370) 
B

>  <Parent_Tanimoto_r3>  (370) 
0.6826923076923077

>  <Max_Train_Tanimoto_r3>  (370) 
0.6826923076923077

>  <Risk_Flags>  (370) 
candidate may be outside strict in-domain threshold

$$$$
CAND_R2_371 | TDA-NH-glycidyl
     RDKit          2D

 68 72  0  0  0  0  0  0  0  0999 V2000
   11.8120  -21.7474    0.0000 C   0  0  0  0  0  0  0  0  0  0  0  0
   11.5515  -20.2702    0.0000 C   0  0  0  0  0  0  0  0  0  0  0  0
   12.7006  -19.3060    0.0000 O   0  0  0  0  0  0  0  0  0  0  0  0
   12.4401  -17.8288    0.0000 Si  0  0  0  0  0  4  0  0  0  0  0  0
   12.1796  -16.3516    0.0000 C   0  0  0  0  0  0  0  0  0  0  0  0
   10.7701  -15.8386    0.0000 C   0  0  0  0  0  0  0  0  0  0  0  0
   10.5096  -14.3614    0.0000 C   0  0  0  0  0  0  0  0  0  0  0  0
    9.1001  -13.8483    0.0000 N   0  0  0  0  0  0  0  0  0  0  0  0
    8.8396  -12.3711    0.0000 C   0  0  0  0  0  0  0  0  0  0  0  0
    7.4300  -11.8581    0.0000 C   0  0  0  0  0  0  0  0  0  0  0  0
    6.2810  -12.8223    0.0000 O   0  0  0  0  0  0  0  0  0  0  0  0
    7.1696  -10.3809    0.0000 C   0  0  0  0  0  0  0  0  0  0  0  0
    5.7600   -9.8678    0.0000 N   0  0  0  0  0  0  0  0  0  0  0  0
    4.6110  -10.8320    0.0000 C   0  0  0  0  0  0  0  0  0  0  0  0
    4.8714  -12.3092    0.0000 O   0  0  0  0  0  0  0  0  0  0  0  0
    3.2014  -10.3190    0.0000 N   0  0  0  0  0  0  0  0  0  0  0  0
    2.0524  -11.2832    0.0000 C   0  0  0  0  0  0  0  0  0  0  0  0
    0.6428  -10.7701    0.0000 C   0  0  0  0  0  0  0  0  0  0  0  0
    0.3824   -9.2929    0.0000 O   0  0  0  0  0  0  0  0  0  0  0  0
   -0.5062  -11.7343    0.0000 C   0  0  0  0  0  0  0  0  0  0  0  0
   -1.9158  -11.2213    0.0000 N   0  0  0  0  0  0  0  0  0  0  0  0
   -3.0648  -12.1855    0.0000 C   0  0  0  0  0  0  0  0  0  0  0  0
   -4.4744  -11.6724    0.0000 C   0  0  0  0  0  0  0  0  0  0  0  0
   -5.6235  -12.6366    0.0000 C   0  0  0  0  0  0  0  0  0  0  0  0
   -7.0330  -12.1236    0.0000 Si  0  0  0  0  0  4  0  0  0  0  0  0
   -8.4425  -11.6106    0.0000 O   0  0  0  0  0  0  0  0  0  0  0  0
   -8.7030  -10.1334    0.0000 C   0  0  0  0  0  0  0  0  0  0  0  0
  -10.1125   -9.6203    0.0000 C   0  0  0  0  0  0  0  0  0  0  0  0
   -7.5460  -13.5331    0.0000 O   0  0  0  0  0  0  0  0  0  0  0  0
   -9.0232  -13.7936    0.0000 C   0  0  0  0  0  0  0  0  0  0  0  0
   -9.5363  -15.2031    0.0000 C   0  0  0  0  0  0  0  0  0  0  0  0
   -6.5200  -10.7141    0.0000 O   0  0  0  0  0  0  0  0  0  0  0  0
   -7.4841   -9.5650    0.0000 C   0  0  0  0  0  0  0  0  0  0  0  0
   -6.9711   -8.1555    0.0000 C   0  0  0  0  0  0  0  0  0  0  0  0
   -2.1763   -9.7441    0.0000 C   0  0  0  0  0  0  0  0  0  0  0  0
   -3.5858   -9.2311    0.0000 C   0  0  0  0  0  0  0  0  0  0  0  0
   -5.0630   -9.4915    0.0000 C   0  0  0  0  0  0  0  0  0  0  0  0
   -4.5500   -8.0820    0.0000 O   0  0  0  0  0  0  0  0  0  0  0  0
    2.9410   -8.8418    0.0000 C   0  0  0  0  0  0  0  0  0  0  0  0
    1.5314   -8.3287    0.0000 O   0  0  0  0  0  0  0  0  0  0  0  0
    4.0900   -7.8776    0.0000 N   0  0  0  0  0  0  0  0  0  0  0  0
    3.8296   -6.4004    0.0000 C   0  0  0  0  0  0  0  0  0  0  0  0
    2.4200   -5.8874    0.0000 C   0  0  0  0  0  0  0  0  0  0  0  0
    1.2709   -6.8515    0.0000 O   0  0  0  0  0  0  0  0  0  0  0  0
    2.1595   -4.4101    0.0000 C   0  0  0  0  0  0  0  0  0  0  0  0
    0.7500   -3.8971    0.0000 P   0  0  0  0  0  0  0  0  0  0  0  0
    0.4895   -5.3743    0.0000 O   0  0  0  0  0  0  0  0  0  0  0  0
    1.5000   -2.5981    0.0000 O   0  0  0  0  0  0  0  0  0  0  0  0
    0.7500   -1.2990    0.0000 C   0  0  0  0  0  0  0  0  0  0  0  0
    1.5000    0.0000    0.0000 C   0  0  0  0  0  0  0  0  0  0  0  0
    0.7500    1.2990    0.0000 C   0  0  0  0  0  0  0  0  0  0  0  0
   -0.7500    1.2990    0.0000 C   0  0  0  0  0  0  0  0  0  0  0  0
   -1.5000    0.0000    0.0000 C   0  0  0  0  0  0  0  0  0  0  0  0
   -0.7500   -1.2990    0.0000 C   0  0  0  0  0  0  0  0  0  0  0  0
   -1.5000   -2.5981    0.0000 C   0  0  0  0  0  0  0  0  0  0  0  0
   -3.0000   -2.5981    0.0000 C   0  0  0  0  0  0  0  0  0  0  0  0
   -3.7500   -3.8971    0.0000 C   0  0  0  0  0  0  0  0  0  0  0  0
   -3.0000   -5.1962    0.0000 C   0  0  0  0  0  0  0  0  0  0  0  0
   -1.5000   -5.1962    0.0000 C   0  0  0  0  0  0  0  0  0  0  0  0
   -0.7500   -3.8971    0.0000 C   0  0  0  0  0  0  0  0  0  0  0  0
    5.4996   -8.3906    0.0000 C   0  0  0  0  0  0  0  0  0  0  0  0
    6.6486   -7.4264    0.0000 O   0  0  0  0  0  0  0  0  0  0  0  0
   13.9173  -17.5683    0.0000 O   0  0  0  0  0  0  0  0  0  0  0  0
   14.8815  -18.7174    0.0000 C   0  0  0  0  0  0  0  0  0  0  0  0
   16.3587  -18.4569    0.0000 C   0  0  0  0  0  0  0  0  0  0  0  0
   10.9629  -18.0893    0.0000 O   0  0  0  0  0  0  0  0  0  0  0  0
   10.4498  -19.4988    0.0000 C   0  0  0  0  0  0  0  0  0  0  0  0
    8.9726  -19.7593    0.0000 C   0  0  0  0  0  0  0  0  0  0  0  0
  1  2  1  0
  2  3  1  0
  3  4  1  0
  4  5  1  0
  5  6  1  0
  6  7  1  0
  7  8  1  0
  8  9  1  0
  9 10  1  0
 10 11  1  0
 10 12  1  0
 12 13  1  0
 13 14  1  0
 14 15  2  0
 14 16  1  0
 16 17  1  0
 17 18  1  0
 18 19  1  0
 18 20  1  0
 20 21  1  0
 21 22  1  0
 22 23  1  0
 23 24  1  0
 24 25  1  0
 25 26  1  0
 26 27  1  0
 27 28  1  0
 25 29  1  0
 29 30  1  0
 30 31  1  0
 25 32  1  0
 32 33  1  0
 33 34  1  0
 21 35  1  0
 35 36  1  0
 36 37  1  0
 37 38  1  0
 16 39  1  0
 39 40  2  0
 39 41  1  0
 41 42  1  0
 42 43  1  0
 43 44  1  0
 43 45  1  0
 45 46  1  0
 46 47  2  0
 46 48  1  0
 48 49  1  0
 49 50  2  0
 50 51  1  0
 51 52  2  0
 52 53  1  0
 53 54  2  0
 54 55  1  0
 55 56  2  0
 56 57  1  0
 57 58  2  0
 58 59  1  0
 59 60  2  0
 41 61  1  0
 61 62  2  0
  4 63  1  0
 63 64  1  0
 64 65  1  0
  4 66  1  0
 66 67  1  0
 67 68  1  0
 61 13  1  0
 38 36  1  0
 60 46  1  0
 54 49  1  0
 60 55  1  0
M  END
>  <Candidate_ID>  (371) 
CAND_R2_371

>  <Candidate_Name>  (371) 
TDA-NH-glycidyl

>  <Parent_Seed_ID>  (371) 
TRAIN_010

>  <Parent_Name>  (371) 
TDA

>  <Transformation_Code>  (371) 
NH_glycidyl

>  <Design_Family>  (371) 
P-N-Si

>  <Preparation_Type>  (371) 
Co-curing

>  <Synthesis_Level>  (371) 
B

>  <Parent_Tanimoto_r3>  (371) 
0.7706422018348624

>  <Max_Train_Tanimoto_r3>  (371) 
0.7706422018348624

>  <Risk_Flags>  (371) 
none

$$$$
CAND_R2_372 | TDA-NH-glycidyl-all
     RDKit          2D

 72 77  0  0  0  0  0  0  0  0999 V2000
  -10.1125   -9.6203    0.0000 C   0  0  0  0  0  0  0  0  0  0  0  0
   -8.7030  -10.1334    0.0000 C   0  0  0  0  0  0  0  0  0  0  0  0
   -8.4425  -11.6106    0.0000 O   0  0  0  0  0  0  0  0  0  0  0  0
   -7.0330  -12.1236    0.0000 Si  0  0  0  0  0  4  0  0  0  0  0  0
   -5.6235  -12.6366    0.0000 C   0  0  0  0  0  0  0  0  0  0  0  0
   -4.4744  -11.6724    0.0000 C   0  0  0  0  0  0  0  0  0  0  0  0
   -3.0648  -12.1855    0.0000 C   0  0  0  0  0  0  0  0  0  0  0  0
   -1.9158  -11.2213    0.0000 N   0  0  0  0  0  0  0  0  0  0  0  0
   -0.5062  -11.7343    0.0000 C   0  0  0  0  0  0  0  0  0  0  0  0
    0.6428  -10.7701    0.0000 C   0  0  0  0  0  0  0  0  0  0  0  0
    0.3824   -9.2929    0.0000 O   0  0  0  0  0  0  0  0  0  0  0  0
    2.0524  -11.2832    0.0000 C   0  0  0  0  0  0  0  0  0  0  0  0
    3.2014  -10.3190    0.0000 N   0  0  0  0  0  0  0  0  0  0  0  0
    4.6110  -10.8320    0.0000 C   0  0  0  0  0  0  0  0  0  0  0  0
    4.8714  -12.3092    0.0000 O   0  0  0  0  0  0  0  0  0  0  0  0
    5.7600   -9.8678    0.0000 N   0  0  0  0  0  0  0  0  0  0  0  0
    7.1696  -10.3809    0.0000 C   0  0  0  0  0  0  0  0  0  0  0  0
    8.3186   -9.4167    0.0000 C   0  0  0  0  0  0  0  0  0  0  0  0
    8.0582   -7.9395    0.0000 O   0  0  0  0  0  0  0  0  0  0  0  0
    9.7282   -9.9297    0.0000 C   0  0  0  0  0  0  0  0  0  0  0  0
   10.8772   -8.9655    0.0000 N   0  0  0  0  0  0  0  0  0  0  0  0
   12.2868   -9.4786    0.0000 C   0  0  0  0  0  0  0  0  0  0  0  0
   13.4359   -8.5144    0.0000 C   0  0  0  0  0  0  0  0  0  0  0  0
   14.8454   -9.0274    0.0000 C   0  0  0  0  0  0  0  0  0  0  0  0
   15.9945   -8.0632    0.0000 Si  0  0  0  0  0  4  0  0  0  0  0  0
   17.1435   -7.0991    0.0000 O   0  0  0  0  0  0  0  0  0  0  0  0
   16.8831   -5.6218    0.0000 C   0  0  0  0  0  0  0  0  0  0  0  0
   18.0321   -4.6577    0.0000 C   0  0  0  0  0  0  0  0  0  0  0  0
   16.9586   -9.2123    0.0000 O   0  0  0  0  0  0  0  0  0  0  0  0
   18.4358   -8.9518    0.0000 C   0  0  0  0  0  0  0  0  0  0  0  0
   19.4000  -10.1009    0.0000 C   0  0  0  0  0  0  0  0  0  0  0  0
   15.0303   -6.9142    0.0000 O   0  0  0  0  0  0  0  0  0  0  0  0
   15.5433   -5.5046    0.0000 C   0  0  0  0  0  0  0  0  0  0  0  0
   14.5791   -4.3556    0.0000 C   0  0  0  0  0  0  0  0  0  0  0  0
   10.6168   -7.4883    0.0000 C   0  0  0  0  0  0  0  0  0  0  0  0
   11.7658   -6.5241    0.0000 C   0  0  0  0  0  0  0  0  0  0  0  0
   12.2789   -5.1146    0.0000 C   0  0  0  0  0  0  0  0  0  0  0  0
   13.2431   -6.2637    0.0000 O   0  0  0  0  0  0  0  0  0  0  0  0
    5.4996   -8.3906    0.0000 C   0  0  0  0  0  0  0  0  0  0  0  0
    6.6486   -7.4264    0.0000 O   0  0  0  0  0  0  0  0  0  0  0  0
    4.0900   -7.8776    0.0000 N   0  0  0  0  0  0  0  0  0  0  0  0
    3.8296   -6.4004    0.0000 C   0  0  0  0  0  0  0  0  0  0  0  0
    2.4200   -5.8874    0.0000 C   0  0  0  0  0  0  0  0  0  0  0  0
    1.2709   -6.8515    0.0000 O   0  0  0  0  0  0  0  0  0  0  0  0
    2.1595   -4.4101    0.0000 C   0  0  0  0  0  0  0  0  0  0  0  0
    0.7500   -3.8971    0.0000 P   0  0  0  0  0  0  0  0  0  0  0  0
    0.4895   -5.3743    0.0000 O   0  0  0  0  0  0  0  0  0  0  0  0
    1.5000   -2.5981    0.0000 O   0  0  0  0  0  0  0  0  0  0  0  0
    0.7500   -1.2990    0.0000 C   0  0  0  0  0  0  0  0  0  0  0  0
    1.5000    0.0000    0.0000 C   0  0  0  0  0  0  0  0  0  0  0  0
    0.7500    1.2990    0.0000 C   0  0  0  0  0  0  0  0  0  0  0  0
   -0.7500    1.2990    0.0000 C   0  0  0  0  0  0  0  0  0  0  0  0
   -1.5000    0.0000    0.0000 C   0  0  0  0  0  0  0  0  0  0  0  0
   -0.7500   -1.2990    0.0000 C   0  0  0  0  0  0  0  0  0  0  0  0
   -1.5000   -2.5981    0.0000 C   0  0  0  0  0  0  0  0  0  0  0  0
   -3.0000   -2.5981    0.0000 C   0  0  0  0  0  0  0  0  0  0  0  0
   -3.7500   -3.8971    0.0000 C   0  0  0  0  0  0  0  0  0  0  0  0
   -3.0000   -5.1962    0.0000 C   0  0  0  0  0  0  0  0  0  0  0  0
   -1.5000   -5.1962    0.0000 C   0  0  0  0  0  0  0  0  0  0  0  0
   -0.7500   -3.8971    0.0000 C   0  0  0  0  0  0  0  0  0  0  0  0
    2.9410   -8.8418    0.0000 C   0  0  0  0  0  0  0  0  0  0  0  0
    1.5314   -8.3287    0.0000 O   0  0  0  0  0  0  0  0  0  0  0  0
   -2.1763   -9.7441    0.0000 C   0  0  0  0  0  0  0  0  0  0  0  0
   -3.5858   -9.2311    0.0000 C   0  0  0  0  0  0  0  0  0  0  0  0
   -5.0630   -9.4915    0.0000 C   0  0  0  0  0  0  0  0  0  0  0  0
   -4.5500   -8.0820    0.0000 O   0  0  0  0  0  0  0  0  0  0  0  0
   -7.5460  -13.5331    0.0000 O   0  0  0  0  0  0  0  0  0  0  0  0
   -9.0232  -13.7936    0.0000 C   0  0  0  0  0  0  0  0  0  0  0  0
   -9.5363  -15.2031    0.0000 C   0  0  0  0  0  0  0  0  0  0  0  0
   -6.5200  -10.7141    0.0000 O   0  0  0  0  0  0  0  0  0  0  0  0
   -7.4841   -9.5650    0.0000 C   0  0  0  0  0  0  0  0  0  0  0  0
   -6.9711   -8.1555    0.0000 C   0  0  0  0  0  0  0  0  0  0  0  0
  1  2  1  0
  2  3  1  0
  3  4  1  0
  4  5  1  0
  5  6  1  0
  6  7  1  0
  7  8  1  0
  8  9  1  0
  9 10  1  0
 10 11  1  0
 10 12  1  0
 12 13  1  0
 13 14  1  0
 14 15  2  0
 14 16  1  0
 16 17  1  0
 17 18  1  0
 18 19  1  0
 18 20  1  0
 20 21  1  0
 21 22  1  0
 22 23  1  0
 23 24  1  0
 24 25  1  0
 25 26  1  0
 26 27  1  0
 27 28  1  0
 25 29  1  0
 29 30  1  0
 30 31  1  0
 25 32  1  0
 32 33  1  0
 33 34  1  0
 21 35  1  0
 35 36  1  0
 36 37  1  0
 37 38  1  0
 16 39  1  0
 39 40  2  0
 39 41  1  0
 41 42  1  0
 42 43  1  0
 43 44  1  0
 43 45  1  0
 45 46  1  0
 46 47  2  0
 46 48  1  0
 48 49  1  0
 49 50  2  0
 50 51  1  0
 51 52  2  0
 52 53  1  0
 53 54  2  0
 54 55  1  0
 55 56  2  0
 56 57  1  0
 57 58  2  0
 58 59  1  0
 59 60  2  0
 41 61  1  0
 61 62  2  0
  8 63  1  0
 63 64  1  0
 64 65  1  0
 65 66  1  0
  4 67  1  0
 67 68  1  0
 68 69  1  0
  4 70  1  0
 70 71  1  0
 71 72  1  0
 61 13  1  0
 66 64  1  0
 38 36  1  0
 60 46  1  0
 54 49  1  0
 60 55  1  0
M  END
>  <Candidate_ID>  (372) 
CAND_R2_372

>  <Candidate_Name>  (372) 
TDA-NH-glycidyl-all

>  <Parent_Seed_ID>  (372) 
TRAIN_010

>  <Parent_Name>  (372) 
TDA

>  <Transformation_Code>  (372) 
NH_glycidyl_all

>  <Design_Family>  (372) 
P-N-Si

>  <Preparation_Type>  (372) 
Co-curing

>  <Synthesis_Level>  (372) 
B

>  <Parent_Tanimoto_r3>  (372) 
0.6513761467889908

>  <Max_Train_Tanimoto_r3>  (372) 
0.6513761467889908

>  <Risk_Flags>  (372) 
candidate may be outside strict in-domain threshold

$$$$
CAND_R2_373 | TetraDSi-amino
     RDKit          2D

214245  0  0  0  0  0  0  0  0999 V2000
    3.0165  -12.4322    0.0000 C   0  0  0  0  0  0  0  0  0  0  0  0
    2.0524  -11.2832    0.0000 C   0  0  0  0  0  0  0  0  0  0  0  0
    1.0882  -10.1341    0.0000 C   0  0  0  0  0  0  0  0  0  0  0  0
    3.2014  -10.3190    0.0000 C   0  0  0  0  0  0  0  0  0  0  0  0
    4.6110  -10.8320    0.0000 C   0  0  0  0  0  0  0  0  0  0  0  0
    5.7600   -9.8678    0.0000 C   0  0  0  0  0  0  0  0  0  0  0  0
    5.4996   -8.3906    0.0000 C   0  0  0  0  0  0  0  0  0  0  0  0
    6.6486   -7.4264    0.0000 O   0  0  0  0  0  0  0  0  0  0  0  0
    4.0900   -7.8776    0.0000 C   0  0  0  0  0  0  0  0  0  0  0  0
    3.8296   -6.4004    0.0000 C   0  0  0  0  0  0  0  0  0  0  0  0
    2.4200   -5.8874    0.0000 C   0  0  0  0  0  0  0  0  0  0  0  0
    2.1595   -4.4101    0.0000 C   0  0  0  0  0  0  0  0  0  0  0  0
    0.7500   -3.8971    0.0000 P   0  0  0  0  0  0  0  0  0  0  0  0
    0.4895   -5.3743    0.0000 O   0  0  0  0  0  0  0  0  0  0  0  0
    1.5000   -2.5981    0.0000 O   0  0  0  0  0  0  0  0  0  0  0  0
    0.7500   -1.2990    0.0000 C   0  0  0  0  0  0  0  0  0  0  0  0
    1.5000    0.0000    0.0000 C   0  0  0  0  0  0  0  0  0  0  0  0
    0.7500    1.2990    0.0000 C   0  0  0  0  0  0  0  0  0  0  0  0
   -0.7500    1.2990    0.0000 C   0  0  0  0  0  0  0  0  0  0  0  0
   -1.5000    0.0000    0.0000 C   0  0  0  0  0  0  0  0  0  0  0  0
   -0.7500   -1.2990    0.0000 C   0  0  0  0  0  0  0  0  0  0  0  0
   -1.5000   -2.5981    0.0000 C   0  0  0  0  0  0  0  0  0  0  0  0
   -3.0000   -2.5981    0.0000 C   0  0  0  0  0  0  0  0  0  0  0  0
   -3.7500   -3.8971    0.0000 C   0  0  0  0  0  0  0  0  0  0  0  0
   -3.0000   -5.1962    0.0000 C   0  0  0  0  0  0  0  0  0  0  0  0
   -1.5000   -5.1962    0.0000 C   0  0  0  0  0  0  0  0  0  0  0  0
   -0.7500   -3.8971    0.0000 C   0  0  0  0  0  0  0  0  0  0  0  0
    2.9410   -8.8418    0.0000 C   0  0  0  0  0  0  0  0  0  0  0  0
    0.9033  -12.2474    0.0000 C   0  0  0  0  0  0  0  0  0  0  0  0
   -0.5062  -11.7343    0.0000 C   0  0  0  0  0  0  0  0  0  0  0  0
   -1.6553  -12.6985    0.0000 C   0  0  0  0  0  0  0  0  0  0  0  0
   -1.3948  -14.1757    0.0000 C   0  0  0  0  0  0  0  0  0  0  0  0
   -2.5439  -15.1399    0.0000 O   0  0  0  0  0  0  0  0  0  0  0  0
   -3.9534  -14.6269    0.0000 Si  0  0  0  0  0  4  0  0  0  0  0  0
   -5.3630  -14.1138    0.0000 O   0  0  0  0  0  0  0  0  0  0  0  0
   -6.5120  -15.0780    0.0000 C   0  0  0  0  0  0  0  0  0  0  0  0
   -6.2516  -16.5552    0.0000 C   0  0  0  0  0  0  0  0  0  0  0  0
   -7.4006  -17.5194    0.0000 C   0  0  0  0  0  0  0  0  0  0  0  0
   -8.8102  -17.0064    0.0000 C   0  0  0  0  0  0  0  0  0  0  0  0
   -9.9592  -17.9706    0.0000 C   0  0  0  0  0  0  0  0  0  0  0  0
  -10.9234  -16.8215    0.0000 C   0  0  0  0  0  0  0  0  0  0  0  0
   -8.9951  -19.1196    0.0000 C   0  0  0  0  0  0  0  0  0  0  0  0
  -11.1083  -18.9347    0.0000 C   0  0  0  0  0  0  0  0  0  0  0  0
  -10.8478  -20.4120    0.0000 C   0  0  0  0  0  0  0  0  0  0  0  0
  -11.9969  -21.3761    0.0000 C   0  0  0  0  0  0  0  0  0  0  0  0
  -13.4064  -20.8631    0.0000 C   0  0  0  0  0  0  0  0  0  0  0  0
  -14.5555  -21.8273    0.0000 O   0  0  0  0  0  0  0  0  0  0  0  0
  -13.6669  -19.3859    0.0000 C   0  0  0  0  0  0  0  0  0  0  0  0
  -15.0765  -18.8729    0.0000 C   0  0  0  0  0  0  0  0  0  0  0  0
  -16.2255  -19.8370    0.0000 C   0  0  0  0  0  0  0  0  0  0  0  0
  -17.6351  -19.3240    0.0000 C   0  0  0  0  0  0  0  0  0  0  0  0
  -18.7841  -20.2882    0.0000 P   0  0  0  0  0  0  0  0  0  0  0  0
  -17.6351  -21.2524    0.0000 O   0  0  0  0  0  0  0  0  0  0  0  0
  -19.5341  -18.9892    0.0000 O   0  0  0  0  0  0  0  0  0  0  0  0
  -21.0341  -18.9892    0.0000 C   0  0  0  0  0  0  0  0  0  0  0  0
  -21.7841  -17.6901    0.0000 C   0  0  0  0  0  0  0  0  0  0  0  0
  -23.2841  -17.6901    0.0000 C   0  0  0  0  0  0  0  0  0  0  0  0
  -24.0341  -18.9892    0.0000 C   0  0  0  0  0  0  0  0  0  0  0  0
  -23.2841  -20.2882    0.0000 C   0  0  0  0  0  0  0  0  0  0  0  0
  -21.7841  -20.2882    0.0000 C   0  0  0  0  0  0  0  0  0  0  0  0
  -21.0341  -21.5872    0.0000 C   0  0  0  0  0  0  0  0  0  0  0  0
  -21.7841  -22.8863    0.0000 C   0  0  0  0  0  0  0  0  0  0  0  0
  -21.0341  -24.1853    0.0000 C   0  0  0  0  0  0  0  0  0  0  0  0
  -19.5341  -24.1853    0.0000 C   0  0  0  0  0  0  0  0  0  0  0  0
  -18.7841  -22.8863    0.0000 C   0  0  0  0  0  0  0  0  0  0  0  0
  -19.5341  -21.5872    0.0000 C   0  0  0  0  0  0  0  0  0  0  0  0
  -12.5179  -18.4217    0.0000 C   0  0  0  0  0  0  0  0  0  0  0  0
   -9.0707  -15.5292    0.0000 C   0  0  0  0  0  0  0  0  0  0  0  0
   -7.9216  -14.5650    0.0000 C   0  0  0  0  0  0  0  0  0  0  0  0
   -8.1821  -13.0878    0.0000 C   0  0  0  0  0  0  0  0  0  0  0  0
   -9.5916  -12.5747    0.0000 C   0  0  0  0  0  0  0  0  0  0  0  0
   -9.8521  -11.0975    0.0000 C   0  0  0  0  0  0  0  0  0  0  0  0
  -11.2616  -10.5845    0.0000 P   0  0  0  0  0  0  0  0  0  0  0  0
  -11.5221  -12.0617    0.0000 O   0  0  0  0  0  0  0  0  0  0  0  0
  -10.5116   -9.2855    0.0000 O   0  0  0  0  0  0  0  0  0  0  0  0
  -11.2616   -7.9864    0.0000 C   0  0  0  0  0  0  0  0  0  0  0  0
  -10.5116   -6.6874    0.0000 C   0  0  0  0  0  0  0  0  0  0  0  0
  -11.2616   -5.3884    0.0000 C   0  0  0  0  0  0  0  0  0  0  0  0
  -12.7616   -5.3884    0.0000 C   0  0  0  0  0  0  0  0  0  0  0  0
  -13.5116   -6.6874    0.0000 C   0  0  0  0  0  0  0  0  0  0  0  0
  -12.7616   -7.9864    0.0000 C   0  0  0  0  0  0  0  0  0  0  0  0
  -13.5116   -9.2855    0.0000 C   0  0  0  0  0  0  0  0  0  0  0  0
  -15.0116   -9.2855    0.0000 C   0  0  0  0  0  0  0  0  0  0  0  0
  -15.7616  -10.5845    0.0000 C   0  0  0  0  0  0  0  0  0  0  0  0
  -15.0116  -11.8835    0.0000 C   0  0  0  0  0  0  0  0  0  0  0  0
  -13.5116  -11.8835    0.0000 C   0  0  0  0  0  0  0  0  0  0  0  0
  -12.7616  -10.5845    0.0000 C   0  0  0  0  0  0  0  0  0  0  0  0
   -4.4665  -16.0364    0.0000 O   0  0  0  0  0  0  0  0  0  0  0  0
   -3.5023  -17.1855    0.0000 C   0  0  0  0  0  0  0  0  0  0  0  0
   -2.0251  -16.9250    0.0000 C   0  0  0  0  0  0  0  0  0  0  0  0
   -1.0609  -18.0741    0.0000 C   0  0  0  0  0  0  0  0  0  0  0  0
   -1.5739  -19.4836    0.0000 C   0  0  0  0  0  0  0  0  0  0  0  0
   -0.6097  -20.6327    0.0000 C   0  0  0  0  0  0  0  0  0  0  0  0
    0.5393  -19.6685    0.0000 C   0  0  0  0  0  0  0  0  0  0  0  0
   -1.7588  -21.5969    0.0000 C   0  0  0  0  0  0  0  0  0  0  0  0
    0.3544  -21.7817    0.0000 C   0  0  0  0  0  0  0  0  0  0  0  0
    1.8316  -21.5213    0.0000 C   0  0  0  0  0  0  0  0  0  0  0  0
    2.7958  -22.6703    0.0000 C   0  0  0  0  0  0  0  0  0  0  0  0
    2.2828  -24.0799    0.0000 C   0  0  0  0  0  0  0  0  0  0  0  0
    3.2470  -25.2289    0.0000 O   0  0  0  0  0  0  0  0  0  0  0  0
    0.8056  -24.3403    0.0000 C   0  0  0  0  0  0  0  0  0  0  0  0
    0.2926  -25.7499    0.0000 C   0  0  0  0  0  0  0  0  0  0  0  0
   -1.1847  -26.0104    0.0000 C   0  0  0  0  0  0  0  0  0  0  0  0
   -1.6977  -27.4199    0.0000 C   0  0  0  0  0  0  0  0  0  0  0  0
   -3.1749  -27.6804    0.0000 P   0  0  0  0  0  0  0  0  0  0  0  0
   -3.1749  -26.1804    0.0000 O   0  0  0  0  0  0  0  0  0  0  0  0
   -2.6619  -29.0899    0.0000 O   0  0  0  0  0  0  0  0  0  0  0  0
   -3.6261  -30.2390    0.0000 C   0  0  0  0  0  0  0  0  0  0  0  0
   -3.1130  -31.6485    0.0000 C   0  0  0  0  0  0  0  0  0  0  0  0
   -4.0772  -32.7976    0.0000 C   0  0  0  0  0  0  0  0  0  0  0  0
   -5.5544  -32.5371    0.0000 C   0  0  0  0  0  0  0  0  0  0  0  0
   -6.0674  -31.1276    0.0000 C   0  0  0  0  0  0  0  0  0  0  0  0
   -5.1033  -29.9785    0.0000 C   0  0  0  0  0  0  0  0  0  0  0  0
   -5.6163  -28.5690    0.0000 C   0  0  0  0  0  0  0  0  0  0  0  0
   -7.0935  -28.3085    0.0000 C   0  0  0  0  0  0  0  0  0  0  0  0
   -7.6065  -26.8990    0.0000 C   0  0  0  0  0  0  0  0  0  0  0  0
   -6.6424  -25.7499    0.0000 C   0  0  0  0  0  0  0  0  0  0  0  0
   -5.1651  -26.0104    0.0000 C   0  0  0  0  0  0  0  0  0  0  0  0
   -4.6521  -27.4199    0.0000 C   0  0  0  0  0  0  0  0  0  0  0  0
   -0.1586  -23.1913    0.0000 C   0  0  0  0  0  0  0  0  0  0  0  0
   -3.0511  -19.7441    0.0000 C   0  0  0  0  0  0  0  0  0  0  0  0
   -4.0153  -18.5950    0.0000 C   0  0  0  0  0  0  0  0  0  0  0  0
   -5.4925  -18.8555    0.0000 C   0  0  0  0  0  0  0  0  0  0  0  0
   -6.0056  -20.2650    0.0000 C   0  0  0  0  0  0  0  0  0  0  0  0
   -5.0414  -21.4141    0.0000 C   0  0  0  0  0  0  0  0  0  0  0  0
   -5.5544  -22.8236    0.0000 P   0  0  0  0  0  0  0  0  0  0  0  0
   -4.0772  -23.0841    0.0000 O   0  0  0  0  0  0  0  0  0  0  0  0
   -6.8535  -22.0736    0.0000 O   0  0  0  0  0  0  0  0  0  0  0  0
   -8.1525  -22.8236    0.0000 C   0  0  0  0  0  0  0  0  0  0  0  0
   -9.4515  -22.0736    0.0000 C   0  0  0  0  0  0  0  0  0  0  0  0
  -10.7506  -22.8236    0.0000 C   0  0  0  0  0  0  0  0  0  0  0  0
  -10.7506  -24.3236    0.0000 C   0  0  0  0  0  0  0  0  0  0  0  0
   -9.4515  -25.0736    0.0000 C   0  0  0  0  0  0  0  0  0  0  0  0
   -8.1525  -24.3236    0.0000 C   0  0  0  0  0  0  0  0  0  0  0  0
   -6.8535  -25.0736    0.0000 C   0  0  0  0  0  0  0  0  0  0  0  0
   -6.8535  -26.5736    0.0000 C   0  0  0  0  0  0  0  0  0  0  0  0
   -5.5544  -27.3236    0.0000 C   0  0  0  0  0  0  0  0  0  0  0  0
   -4.2554  -26.5736    0.0000 C   0  0  0  0  0  0  0  0  0  0  0  0
   -4.2554  -25.0736    0.0000 C   0  0  0  0  0  0  0  0  0  0  0  0
   -5.5544  -24.3236    0.0000 C   0  0  0  0  0  0  0  0  0  0  0  0
   -3.4404  -13.2173    0.0000 O   0  0  0  0  0  0  0  0  0  0  0  0
   -4.4046  -12.0683    0.0000 C   0  0  0  0  0  0  0  0  0  0  0  0
   -3.8916  -10.6587    0.0000 C   0  0  0  0  0  0  0  0  0  0  0  0
   -4.8557   -9.5097    0.0000 C   0  0  0  0  0  0  0  0  0  0  0  0
   -6.3330   -9.7701    0.0000 C   0  0  0  0  0  0  0  0  0  0  0  0
   -7.2971   -8.6211    0.0000 C   0  0  0  0  0  0  0  0  0  0  0  0
   -8.4462   -9.5852    0.0000 C   0  0  0  0  0  0  0  0  0  0  0  0
   -6.1481   -7.6569    0.0000 C   0  0  0  0  0  0  0  0  0  0  0  0
   -8.2613   -7.4720    0.0000 C   0  0  0  0  0  0  0  0  0  0  0  0
   -7.7483   -6.0625    0.0000 C   0  0  0  0  0  0  0  0  0  0  0  0
   -8.7125   -4.9134    0.0000 C   0  0  0  0  0  0  0  0  0  0  0  0
   -8.1994   -3.5039    0.0000 C   0  0  0  0  0  0  0  0  0  0  0  0
   -9.1636   -2.3548    0.0000 C   0  0  0  0  0  0  0  0  0  0  0  0
   -8.6506   -0.9452    0.0000 C   0  0  0  0  0  0  0  0  0  0  0  0
   -9.6148    0.2038    0.0000 P   0  0  0  0  0  0  0  0  0  0  0  0
  -10.5790   -0.9452    0.0000 O   0  0  0  0  0  0  0  0  0  0  0  0
   -8.3157    0.9538    0.0000 O   0  0  0  0  0  0  0  0  0  0  0  0
   -8.3157    2.4538    0.0000 C   0  0  0  0  0  0  0  0  0  0  0  0
   -7.0167    3.2038    0.0000 C   0  0  0  0  0  0  0  0  0  0  0  0
   -7.0167    4.7038    0.0000 C   0  0  0  0  0  0  0  0  0  0  0  0
   -8.3157    5.4538    0.0000 C   0  0  0  0  0  0  0  0  0  0  0  0
   -9.6148    4.7038    0.0000 C   0  0  0  0  0  0  0  0  0  0  0  0
   -9.6148    3.2038    0.0000 C   0  0  0  0  0  0  0  0  0  0  0  0
  -10.9138    2.4538    0.0000 C   0  0  0  0  0  0  0  0  0  0  0  0
  -12.2129    3.2038    0.0000 C   0  0  0  0  0  0  0  0  0  0  0  0
  -13.5119    2.4538    0.0000 C   0  0  0  0  0  0  0  0  0  0  0  0
  -13.5119    0.9538    0.0000 C   0  0  0  0  0  0  0  0  0  0  0  0
  -12.2129    0.2038    0.0000 C   0  0  0  0  0  0  0  0  0  0  0  0
  -10.9138    0.9538    0.0000 C   0  0  0  0  0  0  0  0  0  0  0  0
  -10.1897   -5.1739    0.0000 C   0  0  0  0  0  0  0  0  0  0  0  0
  -11.1539   -4.0248    0.0000 O   0  0  0  0  0  0  0  0  0  0  0  0
  -10.7027   -6.5834    0.0000 C   0  0  0  0  0  0  0  0  0  0  0  0
   -9.7385   -7.7325    0.0000 C   0  0  0  0  0  0  0  0  0  0  0  0
   -9.8952   -9.2243    0.0000 N   0  0  0  0  0  0  0  0  0  0  0  0
   -6.8460  -11.1797    0.0000 C   0  0  0  0  0  0  0  0  0  0  0  0
   -5.8818  -12.3287    0.0000 C   0  0  0  0  0  0  0  0  0  0  0  0
   -6.3948  -13.7383    0.0000 C   0  0  0  0  0  0  0  0  0  0  0  0
   -7.8720  -13.9987    0.0000 C   0  0  0  0  0  0  0  0  0  0  0  0
   -8.3851  -15.4083    0.0000 C   0  0  0  0  0  0  0  0  0  0  0  0
   -9.8623  -15.6688    0.0000 P   0  0  0  0  0  0  0  0  0  0  0  0
   -9.8623  -14.1688    0.0000 O   0  0  0  0  0  0  0  0  0  0  0  0
   -9.3493  -17.0783    0.0000 O   0  0  0  0  0  0  0  0  0  0  0  0
  -10.3134  -18.2274    0.0000 C   0  0  0  0  0  0  0  0  0  0  0  0
   -9.8004  -19.6369    0.0000 C   0  0  0  0  0  0  0  0  0  0  0  0
  -10.7646  -20.7860    0.0000 C   0  0  0  0  0  0  0  0  0  0  0  0
  -12.2418  -20.5255    0.0000 C   0  0  0  0  0  0  0  0  0  0  0  0
  -12.7548  -19.1160    0.0000 C   0  0  0  0  0  0  0  0  0  0  0  0
  -11.7907  -17.9669    0.0000 C   0  0  0  0  0  0  0  0  0  0  0  0
  -12.3037  -16.5574    0.0000 C   0  0  0  0  0  0  0  0  0  0  0  0
  -13.7809  -16.2969    0.0000 C   0  0  0  0  0  0  0  0  0  0  0  0
  -14.2939  -14.8873    0.0000 C   0  0  0  0  0  0  0  0  0  0  0  0
  -13.3297  -13.7383    0.0000 C   0  0  0  0  0  0  0  0  0  0  0  0
  -11.8525  -13.9987    0.0000 C   0  0  0  0  0  0  0  0  0  0  0  0
  -11.3395  -15.4083    0.0000 C   0  0  0  0  0  0  0  0  0  0  0  0
    0.0147  -14.6887    0.0000 C   0  0  0  0  0  0  0  0  0  0  0  0
    0.2752  -16.1660    0.0000 C   0  0  0  0  0  0  0  0  0  0  0  0
    1.6847  -16.6790    0.0000 C   0  0  0  0  0  0  0  0  0  0  0  0
    1.9452  -18.1562    0.0000 C   0  0  0  0  0  0  0  0  0  0  0  0
    3.3547  -18.6692    0.0000 P   0  0  0  0  0  0  0  0  0  0  0  0
    3.6152  -17.1920    0.0000 O   0  0  0  0  0  0  0  0  0  0  0  0
    2.6047  -19.9683    0.0000 O   0  0  0  0  0  0  0  0  0  0  0  0
    3.3547  -21.2673    0.0000 C   0  0  0  0  0  0  0  0  0  0  0  0
    2.6047  -22.5663    0.0000 C   0  0  0  0  0  0  0  0  0  0  0  0
    3.3547  -23.8654    0.0000 C   0  0  0  0  0  0  0  0  0  0  0  0
    4.8547  -23.8654    0.0000 C   0  0  0  0  0  0  0  0  0  0  0  0
    5.6047  -22.5663    0.0000 C   0  0  0  0  0  0  0  0  0  0  0  0
    4.8547  -21.2673    0.0000 C   0  0  0  0  0  0  0  0  0  0  0  0
    5.6047  -19.9683    0.0000 C   0  0  0  0  0  0  0  0  0  0  0  0
    7.1047  -19.9683    0.0000 C   0  0  0  0  0  0  0  0  0  0  0  0
    7.8547  -18.6692    0.0000 C   0  0  0  0  0  0  0  0  0  0  0  0
    7.1047  -17.3702    0.0000 C   0  0  0  0  0  0  0  0  0  0  0  0
    5.6047  -17.3702    0.0000 C   0  0  0  0  0  0  0  0  0  0  0  0
    4.8547  -18.6692    0.0000 C   0  0  0  0  0  0  0  0  0  0  0  0
    1.1638  -13.7246    0.0000 C   0  0  0  0  0  0  0  0  0  0  0  0
  1  2  1  0
  2  3  1  0
  2  4  1  0
  4  5  2  0
  5  6  1  0
  6  7  2  0
  7  8  1  0
  7  9  1  0
  9 10  1  0
 10 11  1  0
 11 12  1  0
 12 13  1  0
 13 14  2  0
 13 15  1  0
 15 16  1  0
 16 17  2  0
 17 18  1  0
 18 19  2  0
 19 20  1  0
 20 21  2  0
 21 22  1  0
 22 23  2  0
 23 24  1  0
 24 25  2  0
 25 26  1  0
 26 27  2  0
  9 28  2  0
  2 29  1  0
 29 30  2  0
 30 31  1  0
 31 32  2  0
 32 33  1  0
 33 34  1  0
 34 35  1  0
 35 36  1  0
 36 37  2  0
 37 38  1  0
 38 39  2  0
 39 40  1  0
 40 41  1  0
 40 42  1  0
 40 43  1  0
 43 44  2  0
 44 45  1  0
 45 46  2  0
 46 47  1  0
 46 48  1  0
 48 49  1  0
 49 50  1  0
 50 51  1  0
 51 52  1  0
 52 53  2  0
 52 54  1  0
 54 55  1  0
 55 56  2  0
 56 57  1  0
 57 58  2  0
 58 59  1  0
 59 60  2  0
 60 61  1  0
 61 62  2  0
 62 63  1  0
 63 64  2  0
 64 65  1  0
 65 66  2  0
 48 67  2  0
 39 68  1  0
 68 69  2  0
 69 70  1  0
 70 71  1  0
 71 72  1  0
 72 73  1  0
 73 74  2  0
 73 75  1  0
 75 76  1  0
 76 77  2  0
 77 78  1  0
 78 79  2  0
 79 80  1  0
 80 81  2  0
 81 82  1  0
 82 83  2  0
 83 84  1  0
 84 85  2  0
 85 86  1  0
 86 87  2  0
 34 88  1  0
 88 89  1  0
 89 90  2  0
 90 91  1  0
 91 92  2  0
 92 93  1  0
 93 94  1  0
 93 95  1  0
 93 96  1  0
 96 97  2  0
 97 98  1  0
 98 99  2  0
 99100  1  0
 99101  1  0
101102  1  0
102103  1  0
103104  1  0
104105  1  0
105106  2  0
105107  1  0
107108  1  0
108109  2  0
109110  1  0
110111  2  0
111112  1  0
112113  2  0
113114  1  0
114115  2  0
115116  1  0
116117  2  0
117118  1  0
118119  2  0
101120  2  0
 92121  1  0
121122  2  0
122123  1  0
123124  1  0
124125  1  0
125126  1  0
126127  2  0
126128  1  0
128129  1  0
129130  2  0
130131  1  0
131132  2  0
132133  1  0
133134  2  0
134135  1  0
135136  2  0
136137  1  0
137138  2  0
138139  1  0
139140  2  0
 34141  1  0
141142  1  0
142143  2  0
143144  1  0
144145  2  0
145146  1  0
146147  1  0
146148  1  0
146149  1  0
149150  2  0
150151  1  0
151152  1  0
152153  1  0
153154  1  0
154155  1  0
155156  2  0
155157  1  0
157158  1  0
158159  2  0
159160  1  0
160161  2  0
161162  1  0
162163  2  0
163164  1  0
164165  2  0
165166  1  0
166167  2  0
167168  1  0
168169  2  0
151170  2  0
170171  1  0
170172  1  0
172173  2  0
173174  1  0
145175  1  0
175176  2  0
176177  1  0
177178  1  0
178179  1  0
179180  1  0
180181  2  0
180182  1  0
182183  1  0
183184  2  0
184185  1  0
185186  2  0
186187  1  0
187188  2  0
188189  1  0
189190  2  0
190191  1  0
191192  2  0
192193  1  0
193194  2  0
 32195  1  0
195196  1  0
196197  1  0
197198  1  0
198199  1  0
199200  2  0
199201  1  0
201202  1  0
202203  2  0
203204  1  0
204205  2  0
205206  1  0
206207  2  0
207208  1  0
208209  2  0
209210  1  0
210211  2  0
211212  1  0
212213  2  0
195214  2  0
 28  4  1  0
214 29  1  0
 27 13  1  0
 69 36  1  0
 87 73  1  0
122 89  1  0
140126  1  0
176142  1  0
194180  1  0
213199  1  0
 21 16  1  0
 27 22  1  0
 67 43  1  0
 81 76  1  0
 87 82  1  0
120 96  1  0
134129  1  0
140135  1  0
173149  1  0
188183  1  0
194189  1  0
207202  1  0
213208  1  0
 66 52  1  0
119105  1  0
169155  1  0
 60 55  1  0
 66 61  1  0
113108  1  0
119114  1  0
163158  1  0
169164  1  0
M  END
>  <Candidate_ID>  (373) 
CAND_R2_373

>  <Candidate_Name>  (373) 
TetraDSi-amino

>  <Parent_Seed_ID>  (373) 
TRAIN_103

>  <Parent_Name>  (373) 
TetraDSi

>  <Transformation_Code>  (373) 
amino

>  <Design_Family>  (373) 
P-N-Si

>  <Preparation_Type>  (373) 
Co-curing

>  <Synthesis_Level>  (373) 
C

>  <Parent_Tanimoto_r3>  (373) 
0.8301886792452831

>  <Max_Train_Tanimoto_r3>  (373) 
0.8301886792452831

>  <Risk_Flags>  (373) 
high molecular weight; high DOPO count; exploratory only; excluded from formal screening

$$$$
CAND_R2_374 | TetraDSi-hydroxy
     RDKit          2D

214245  0  0  0  0  0  0  0  0999 V2000
    3.0165  -12.4322    0.0000 C   0  0  0  0  0  0  0  0  0  0  0  0
    2.0524  -11.2832    0.0000 C   0  0  0  0  0  0  0  0  0  0  0  0
    1.0882  -10.1341    0.0000 C   0  0  0  0  0  0  0  0  0  0  0  0
    3.2014  -10.3190    0.0000 C   0  0  0  0  0  0  0  0  0  0  0  0
    4.6110  -10.8320    0.0000 C   0  0  0  0  0  0  0  0  0  0  0  0
    5.7600   -9.8678    0.0000 C   0  0  0  0  0  0  0  0  0  0  0  0
    5.4996   -8.3906    0.0000 C   0  0  0  0  0  0  0  0  0  0  0  0
    6.6486   -7.4264    0.0000 O   0  0  0  0  0  0  0  0  0  0  0  0
    4.0900   -7.8776    0.0000 C   0  0  0  0  0  0  0  0  0  0  0  0
    3.8296   -6.4004    0.0000 C   0  0  0  0  0  0  0  0  0  0  0  0
    2.4200   -5.8874    0.0000 C   0  0  0  0  0  0  0  0  0  0  0  0
    2.1595   -4.4101    0.0000 C   0  0  0  0  0  0  0  0  0  0  0  0
    0.7500   -3.8971    0.0000 P   0  0  0  0  0  0  0  0  0  0  0  0
    0.4895   -5.3743    0.0000 O   0  0  0  0  0  0  0  0  0  0  0  0
    1.5000   -2.5981    0.0000 O   0  0  0  0  0  0  0  0  0  0  0  0
    0.7500   -1.2990    0.0000 C   0  0  0  0  0  0  0  0  0  0  0  0
    1.5000    0.0000    0.0000 C   0  0  0  0  0  0  0  0  0  0  0  0
    0.7500    1.2990    0.0000 C   0  0  0  0  0  0  0  0  0  0  0  0
   -0.7500    1.2990    0.0000 C   0  0  0  0  0  0  0  0  0  0  0  0
   -1.5000    0.0000    0.0000 C   0  0  0  0  0  0  0  0  0  0  0  0
   -0.7500   -1.2990    0.0000 C   0  0  0  0  0  0  0  0  0  0  0  0
   -1.5000   -2.5981    0.0000 C   0  0  0  0  0  0  0  0  0  0  0  0
   -3.0000   -2.5981    0.0000 C   0  0  0  0  0  0  0  0  0  0  0  0
   -3.7500   -3.8971    0.0000 C   0  0  0  0  0  0  0  0  0  0  0  0
   -3.0000   -5.1962    0.0000 C   0  0  0  0  0  0  0  0  0  0  0  0
   -1.5000   -5.1962    0.0000 C   0  0  0  0  0  0  0  0  0  0  0  0
   -0.7500   -3.8971    0.0000 C   0  0  0  0  0  0  0  0  0  0  0  0
    2.9410   -8.8418    0.0000 C   0  0  0  0  0  0  0  0  0  0  0  0
    0.9033  -12.2474    0.0000 C   0  0  0  0  0  0  0  0  0  0  0  0
   -0.5062  -11.7343    0.0000 C   0  0  0  0  0  0  0  0  0  0  0  0
   -1.6553  -12.6985    0.0000 C   0  0  0  0  0  0  0  0  0  0  0  0
   -1.3948  -14.1757    0.0000 C   0  0  0  0  0  0  0  0  0  0  0  0
   -2.5439  -15.1399    0.0000 O   0  0  0  0  0  0  0  0  0  0  0  0
   -3.9534  -14.6269    0.0000 Si  0  0  0  0  0  4  0  0  0  0  0  0
   -5.3630  -14.1138    0.0000 O   0  0  0  0  0  0  0  0  0  0  0  0
   -6.5120  -15.0780    0.0000 C   0  0  0  0  0  0  0  0  0  0  0  0
   -6.2516  -16.5552    0.0000 C   0  0  0  0  0  0  0  0  0  0  0  0
   -7.4006  -17.5194    0.0000 C   0  0  0  0  0  0  0  0  0  0  0  0
   -8.8102  -17.0064    0.0000 C   0  0  0  0  0  0  0  0  0  0  0  0
   -9.9592  -17.9706    0.0000 C   0  0  0  0  0  0  0  0  0  0  0  0
  -10.9234  -16.8215    0.0000 C   0  0  0  0  0  0  0  0  0  0  0  0
   -8.9951  -19.1196    0.0000 C   0  0  0  0  0  0  0  0  0  0  0  0
  -11.1083  -18.9347    0.0000 C   0  0  0  0  0  0  0  0  0  0  0  0
  -10.8478  -20.4120    0.0000 C   0  0  0  0  0  0  0  0  0  0  0  0
  -11.9969  -21.3761    0.0000 C   0  0  0  0  0  0  0  0  0  0  0  0
  -13.4064  -20.8631    0.0000 C   0  0  0  0  0  0  0  0  0  0  0  0
  -14.5555  -21.8273    0.0000 O   0  0  0  0  0  0  0  0  0  0  0  0
  -13.6669  -19.3859    0.0000 C   0  0  0  0  0  0  0  0  0  0  0  0
  -15.0765  -18.8729    0.0000 C   0  0  0  0  0  0  0  0  0  0  0  0
  -16.2255  -19.8370    0.0000 C   0  0  0  0  0  0  0  0  0  0  0  0
  -17.6351  -19.3240    0.0000 C   0  0  0  0  0  0  0  0  0  0  0  0
  -18.7841  -20.2882    0.0000 P   0  0  0  0  0  0  0  0  0  0  0  0
  -17.6351  -21.2524    0.0000 O   0  0  0  0  0  0  0  0  0  0  0  0
  -19.5341  -18.9892    0.0000 O   0  0  0  0  0  0  0  0  0  0  0  0
  -21.0341  -18.9892    0.0000 C   0  0  0  0  0  0  0  0  0  0  0  0
  -21.7841  -17.6901    0.0000 C   0  0  0  0  0  0  0  0  0  0  0  0
  -23.2841  -17.6901    0.0000 C   0  0  0  0  0  0  0  0  0  0  0  0
  -24.0341  -18.9892    0.0000 C   0  0  0  0  0  0  0  0  0  0  0  0
  -23.2841  -20.2882    0.0000 C   0  0  0  0  0  0  0  0  0  0  0  0
  -21.7841  -20.2882    0.0000 C   0  0  0  0  0  0  0  0  0  0  0  0
  -21.0341  -21.5872    0.0000 C   0  0  0  0  0  0  0  0  0  0  0  0
  -21.7841  -22.8863    0.0000 C   0  0  0  0  0  0  0  0  0  0  0  0
  -21.0341  -24.1853    0.0000 C   0  0  0  0  0  0  0  0  0  0  0  0
  -19.5341  -24.1853    0.0000 C   0  0  0  0  0  0  0  0  0  0  0  0
  -18.7841  -22.8863    0.0000 C   0  0  0  0  0  0  0  0  0  0  0  0
  -19.5341  -21.5872    0.0000 C   0  0  0  0  0  0  0  0  0  0  0  0
  -12.5179  -18.4217    0.0000 C   0  0  0  0  0  0  0  0  0  0  0  0
   -9.0707  -15.5292    0.0000 C   0  0  0  0  0  0  0  0  0  0  0  0
   -7.9216  -14.5650    0.0000 C   0  0  0  0  0  0  0  0  0  0  0  0
   -8.1821  -13.0878    0.0000 C   0  0  0  0  0  0  0  0  0  0  0  0
   -9.5916  -12.5747    0.0000 C   0  0  0  0  0  0  0  0  0  0  0  0
   -9.8521  -11.0975    0.0000 C   0  0  0  0  0  0  0  0  0  0  0  0
  -11.2616  -10.5845    0.0000 P   0  0  0  0  0  0  0  0  0  0  0  0
  -11.5221  -12.0617    0.0000 O   0  0  0  0  0  0  0  0  0  0  0  0
  -10.5116   -9.2855    0.0000 O   0  0  0  0  0  0  0  0  0  0  0  0
  -11.2616   -7.9864    0.0000 C   0  0  0  0  0  0  0  0  0  0  0  0
  -10.5116   -6.6874    0.0000 C   0  0  0  0  0  0  0  0  0  0  0  0
  -11.2616   -5.3884    0.0000 C   0  0  0  0  0  0  0  0  0  0  0  0
  -12.7616   -5.3884    0.0000 C   0  0  0  0  0  0  0  0  0  0  0  0
  -13.5116   -6.6874    0.0000 C   0  0  0  0  0  0  0  0  0  0  0  0
  -12.7616   -7.9864    0.0000 C   0  0  0  0  0  0  0  0  0  0  0  0
  -13.5116   -9.2855    0.0000 C   0  0  0  0  0  0  0  0  0  0  0  0
  -15.0116   -9.2855    0.0000 C   0  0  0  0  0  0  0  0  0  0  0  0
  -15.7616  -10.5845    0.0000 C   0  0  0  0  0  0  0  0  0  0  0  0
  -15.0116  -11.8835    0.0000 C   0  0  0  0  0  0  0  0  0  0  0  0
  -13.5116  -11.8835    0.0000 C   0  0  0  0  0  0  0  0  0  0  0  0
  -12.7616  -10.5845    0.0000 C   0  0  0  0  0  0  0  0  0  0  0  0
   -4.4665  -16.0364    0.0000 O   0  0  0  0  0  0  0  0  0  0  0  0
   -3.5023  -17.1855    0.0000 C   0  0  0  0  0  0  0  0  0  0  0  0
   -2.0251  -16.9250    0.0000 C   0  0  0  0  0  0  0  0  0  0  0  0
   -1.0609  -18.0741    0.0000 C   0  0  0  0  0  0  0  0  0  0  0  0
   -1.5739  -19.4836    0.0000 C   0  0  0  0  0  0  0  0  0  0  0  0
   -0.6097  -20.6327    0.0000 C   0  0  0  0  0  0  0  0  0  0  0  0
    0.5393  -19.6685    0.0000 C   0  0  0  0  0  0  0  0  0  0  0  0
   -1.7588  -21.5969    0.0000 C   0  0  0  0  0  0  0  0  0  0  0  0
    0.3544  -21.7817    0.0000 C   0  0  0  0  0  0  0  0  0  0  0  0
    1.8316  -21.5213    0.0000 C   0  0  0  0  0  0  0  0  0  0  0  0
    2.7958  -22.6703    0.0000 C   0  0  0  0  0  0  0  0  0  0  0  0
    2.2828  -24.0799    0.0000 C   0  0  0  0  0  0  0  0  0  0  0  0
    3.2470  -25.2289    0.0000 O   0  0  0  0  0  0  0  0  0  0  0  0
    0.8056  -24.3403    0.0000 C   0  0  0  0  0  0  0  0  0  0  0  0
    0.2926  -25.7499    0.0000 C   0  0  0  0  0  0  0  0  0  0  0  0
   -1.1847  -26.0104    0.0000 C   0  0  0  0  0  0  0  0  0  0  0  0
   -1.6977  -27.4199    0.0000 C   0  0  0  0  0  0  0  0  0  0  0  0
   -3.1749  -27.6804    0.0000 P   0  0  0  0  0  0  0  0  0  0  0  0
   -3.1749  -26.1804    0.0000 O   0  0  0  0  0  0  0  0  0  0  0  0
   -2.6619  -29.0899    0.0000 O   0  0  0  0  0  0  0  0  0  0  0  0
   -3.6261  -30.2390    0.0000 C   0  0  0  0  0  0  0  0  0  0  0  0
   -3.1130  -31.6485    0.0000 C   0  0  0  0  0  0  0  0  0  0  0  0
   -4.0772  -32.7976    0.0000 C   0  0  0  0  0  0  0  0  0  0  0  0
   -5.5544  -32.5371    0.0000 C   0  0  0  0  0  0  0  0  0  0  0  0
   -6.0674  -31.1276    0.0000 C   0  0  0  0  0  0  0  0  0  0  0  0
   -5.1033  -29.9785    0.0000 C   0  0  0  0  0  0  0  0  0  0  0  0
   -5.6163  -28.5690    0.0000 C   0  0  0  0  0  0  0  0  0  0  0  0
   -7.0935  -28.3085    0.0000 C   0  0  0  0  0  0  0  0  0  0  0  0
   -7.6065  -26.8990    0.0000 C   0  0  0  0  0  0  0  0  0  0  0  0
   -6.6424  -25.7499    0.0000 C   0  0  0  0  0  0  0  0  0  0  0  0
   -5.1651  -26.0104    0.0000 C   0  0  0  0  0  0  0  0  0  0  0  0
   -4.6521  -27.4199    0.0000 C   0  0  0  0  0  0  0  0  0  0  0  0
   -0.1586  -23.1913    0.0000 C   0  0  0  0  0  0  0  0  0  0  0  0
   -3.0511  -19.7441    0.0000 C   0  0  0  0  0  0  0  0  0  0  0  0
   -4.0153  -18.5950    0.0000 C   0  0  0  0  0  0  0  0  0  0  0  0
   -5.4925  -18.8555    0.0000 C   0  0  0  0  0  0  0  0  0  0  0  0
   -6.0056  -20.2650    0.0000 C   0  0  0  0  0  0  0  0  0  0  0  0
   -5.0414  -21.4141    0.0000 C   0  0  0  0  0  0  0  0  0  0  0  0
   -5.5544  -22.8236    0.0000 P   0  0  0  0  0  0  0  0  0  0  0  0
   -4.0772  -23.0841    0.0000 O   0  0  0  0  0  0  0  0  0  0  0  0
   -6.8535  -22.0736    0.0000 O   0  0  0  0  0  0  0  0  0  0  0  0
   -8.1525  -22.8236    0.0000 C   0  0  0  0  0  0  0  0  0  0  0  0
   -9.4515  -22.0736    0.0000 C   0  0  0  0  0  0  0  0  0  0  0  0
  -10.7506  -22.8236    0.0000 C   0  0  0  0  0  0  0  0  0  0  0  0
  -10.7506  -24.3236    0.0000 C   0  0  0  0  0  0  0  0  0  0  0  0
   -9.4515  -25.0736    0.0000 C   0  0  0  0  0  0  0  0  0  0  0  0
   -8.1525  -24.3236    0.0000 C   0  0  0  0  0  0  0  0  0  0  0  0
   -6.8535  -25.0736    0.0000 C   0  0  0  0  0  0  0  0  0  0  0  0
   -6.8535  -26.5736    0.0000 C   0  0  0  0  0  0  0  0  0  0  0  0
   -5.5544  -27.3236    0.0000 C   0  0  0  0  0  0  0  0  0  0  0  0
   -4.2554  -26.5736    0.0000 C   0  0  0  0  0  0  0  0  0  0  0  0
   -4.2554  -25.0736    0.0000 C   0  0  0  0  0  0  0  0  0  0  0  0
   -5.5544  -24.3236    0.0000 C   0  0  0  0  0  0  0  0  0  0  0  0
   -3.4404  -13.2173    0.0000 O   0  0  0  0  0  0  0  0  0  0  0  0
   -4.4046  -12.0683    0.0000 C   0  0  0  0  0  0  0  0  0  0  0  0
   -3.8916  -10.6587    0.0000 C   0  0  0  0  0  0  0  0  0  0  0  0
   -4.8557   -9.5097    0.0000 C   0  0  0  0  0  0  0  0  0  0  0  0
   -6.3330   -9.7701    0.0000 C   0  0  0  0  0  0  0  0  0  0  0  0
   -7.2971   -8.6211    0.0000 C   0  0  0  0  0  0  0  0  0  0  0  0
   -8.4462   -9.5852    0.0000 C   0  0  0  0  0  0  0  0  0  0  0  0
   -6.1481   -7.6569    0.0000 C   0  0  0  0  0  0  0  0  0  0  0  0
   -8.2613   -7.4720    0.0000 C   0  0  0  0  0  0  0  0  0  0  0  0
   -7.7483   -6.0625    0.0000 C   0  0  0  0  0  0  0  0  0  0  0  0
   -8.7125   -4.9134    0.0000 C   0  0  0  0  0  0  0  0  0  0  0  0
   -8.1994   -3.5039    0.0000 C   0  0  0  0  0  0  0  0  0  0  0  0
   -9.1636   -2.3548    0.0000 C   0  0  0  0  0  0  0  0  0  0  0  0
   -8.6506   -0.9452    0.0000 C   0  0  0  0  0  0  0  0  0  0  0  0
   -9.6148    0.2038    0.0000 P   0  0  0  0  0  0  0  0  0  0  0  0
  -10.5790   -0.9452    0.0000 O   0  0  0  0  0  0  0  0  0  0  0  0
   -8.3157    0.9538    0.0000 O   0  0  0  0  0  0  0  0  0  0  0  0
   -8.3157    2.4538    0.0000 C   0  0  0  0  0  0  0  0  0  0  0  0
   -7.0167    3.2038    0.0000 C   0  0  0  0  0  0  0  0  0  0  0  0
   -7.0167    4.7038    0.0000 C   0  0  0  0  0  0  0  0  0  0  0  0
   -8.3157    5.4538    0.0000 C   0  0  0  0  0  0  0  0  0  0  0  0
   -9.6148    4.7038    0.0000 C   0  0  0  0  0  0  0  0  0  0  0  0
   -9.6148    3.2038    0.0000 C   0  0  0  0  0  0  0  0  0  0  0  0
  -10.9138    2.4538    0.0000 C   0  0  0  0  0  0  0  0  0  0  0  0
  -12.2129    3.2038    0.0000 C   0  0  0  0  0  0  0  0  0  0  0  0
  -13.5119    2.4538    0.0000 C   0  0  0  0  0  0  0  0  0  0  0  0
  -13.5119    0.9538    0.0000 C   0  0  0  0  0  0  0  0  0  0  0  0
  -12.2129    0.2038    0.0000 C   0  0  0  0  0  0  0  0  0  0  0  0
  -10.9138    0.9538    0.0000 C   0  0  0  0  0  0  0  0  0  0  0  0
  -10.1897   -5.1739    0.0000 C   0  0  0  0  0  0  0  0  0  0  0  0
  -11.1539   -4.0248    0.0000 O   0  0  0  0  0  0  0  0  0  0  0  0
  -10.7027   -6.5834    0.0000 C   0  0  0  0  0  0  0  0  0  0  0  0
   -9.7385   -7.7325    0.0000 C   0  0  0  0  0  0  0  0  0  0  0  0
   -9.8952   -9.2243    0.0000 O   0  0  0  0  0  0  0  0  0  0  0  0
   -6.8460  -11.1797    0.0000 C   0  0  0  0  0  0  0  0  0  0  0  0
   -5.8818  -12.3287    0.0000 C   0  0  0  0  0  0  0  0  0  0  0  0
   -6.3948  -13.7383    0.0000 C   0  0  0  0  0  0  0  0  0  0  0  0
   -7.8720  -13.9987    0.0000 C   0  0  0  0  0  0  0  0  0  0  0  0
   -8.3851  -15.4083    0.0000 C   0  0  0  0  0  0  0  0  0  0  0  0
   -9.8623  -15.6688    0.0000 P   0  0  0  0  0  0  0  0  0  0  0  0
   -9.8623  -14.1688    0.0000 O   0  0  0  0  0  0  0  0  0  0  0  0
   -9.3493  -17.0783    0.0000 O   0  0  0  0  0  0  0  0  0  0  0  0
  -10.3134  -18.2274    0.0000 C   0  0  0  0  0  0  0  0  0  0  0  0
   -9.8004  -19.6369    0.0000 C   0  0  0  0  0  0  0  0  0  0  0  0
  -10.7646  -20.7860    0.0000 C   0  0  0  0  0  0  0  0  0  0  0  0
  -12.2418  -20.5255    0.0000 C   0  0  0  0  0  0  0  0  0  0  0  0
  -12.7548  -19.1160    0.0000 C   0  0  0  0  0  0  0  0  0  0  0  0
  -11.7907  -17.9669    0.0000 C   0  0  0  0  0  0  0  0  0  0  0  0
  -12.3037  -16.5574    0.0000 C   0  0  0  0  0  0  0  0  0  0  0  0
  -13.7809  -16.2969    0.0000 C   0  0  0  0  0  0  0  0  0  0  0  0
  -14.2939  -14.8873    0.0000 C   0  0  0  0  0  0  0  0  0  0  0  0
  -13.3297  -13.7383    0.0000 C   0  0  0  0  0  0  0  0  0  0  0  0
  -11.8525  -13.9987    0.0000 C   0  0  0  0  0  0  0  0  0  0  0  0
  -11.3395  -15.4083    0.0000 C   0  0  0  0  0  0  0  0  0  0  0  0
    0.0147  -14.6887    0.0000 C   0  0  0  0  0  0  0  0  0  0  0  0
    0.2752  -16.1660    0.0000 C   0  0  0  0  0  0  0  0  0  0  0  0
    1.6847  -16.6790    0.0000 C   0  0  0  0  0  0  0  0  0  0  0  0
    1.9452  -18.1562    0.0000 C   0  0  0  0  0  0  0  0  0  0  0  0
    3.3547  -18.6692    0.0000 P   0  0  0  0  0  0  0  0  0  0  0  0
    3.6152  -17.1920    0.0000 O   0  0  0  0  0  0  0  0  0  0  0  0
    2.6047  -19.9683    0.0000 O   0  0  0  0  0  0  0  0  0  0  0  0
    3.3547  -21.2673    0.0000 C   0  0  0  0  0  0  0  0  0  0  0  0
    2.6047  -22.5663    0.0000 C   0  0  0  0  0  0  0  0  0  0  0  0
    3.3547  -23.8654    0.0000 C   0  0  0  0  0  0  0  0  0  0  0  0
    4.8547  -23.8654    0.0000 C   0  0  0  0  0  0  0  0  0  0  0  0
    5.6047  -22.5663    0.0000 C   0  0  0  0  0  0  0  0  0  0  0  0
    4.8547  -21.2673    0.0000 C   0  0  0  0  0  0  0  0  0  0  0  0
    5.6047  -19.9683    0.0000 C   0  0  0  0  0  0  0  0  0  0  0  0
    7.1047  -19.9683    0.0000 C   0  0  0  0  0  0  0  0  0  0  0  0
    7.8547  -18.6692    0.0000 C   0  0  0  0  0  0  0  0  0  0  0  0
    7.1047  -17.3702    0.0000 C   0  0  0  0  0  0  0  0  0  0  0  0
    5.6047  -17.3702    0.0000 C   0  0  0  0  0  0  0  0  0  0  0  0
    4.8547  -18.6692    0.0000 C   0  0  0  0  0  0  0  0  0  0  0  0
    1.1638  -13.7246    0.0000 C   0  0  0  0  0  0  0  0  0  0  0  0
  1  2  1  0
  2  3  1  0
  2  4  1  0
  4  5  2  0
  5  6  1  0
  6  7  2  0
  7  8  1  0
  7  9  1  0
  9 10  1  0
 10 11  1  0
 11 12  1  0
 12 13  1  0
 13 14  2  0
 13 15  1  0
 15 16  1  0
 16 17  2  0
 17 18  1  0
 18 19  2  0
 19 20  1  0
 20 21  2  0
 21 22  1  0
 22 23  2  0
 23 24  1  0
 24 25  2  0
 25 26  1  0
 26 27  2  0
  9 28  2  0
  2 29  1  0
 29 30  2  0
 30 31  1  0
 31 32  2  0
 32 33  1  0
 33 34  1  0
 34 35  1  0
 35 36  1  0
 36 37  2  0
 37 38  1  0
 38 39  2  0
 39 40  1  0
 40 41  1  0
 40 42  1  0
 40 43  1  0
 43 44  2  0
 44 45  1  0
 45 46  2  0
 46 47  1  0
 46 48  1  0
 48 49  1  0
 49 50  1  0
 50 51  1  0
 51 52  1  0
 52 53  2  0
 52 54  1  0
 54 55  1  0
 55 56  2  0
 56 57  1  0
 57 58  2  0
 58 59  1  0
 59 60  2  0
 60 61  1  0
 61 62  2  0
 62 63  1  0
 63 64  2  0
 64 65  1  0
 65 66  2  0
 48 67  2  0
 39 68  1  0
 68 69  2  0
 69 70  1  0
 70 71  1  0
 71 72  1  0
 72 73  1  0
 73 74  2  0
 73 75  1  0
 75 76  1  0
 76 77  2  0
 77 78  1  0
 78 79  2  0
 79 80  1  0
 80 81  2  0
 81 82  1  0
 82 83  2  0
 83 84  1  0
 84 85  2  0
 85 86  1  0
 86 87  2  0
 34 88  1  0
 88 89  1  0
 89 90  2  0
 90 91  1  0
 91 92  2  0
 92 93  1  0
 93 94  1  0
 93 95  1  0
 93 96  1  0
 96 97  2  0
 97 98  1  0
 98 99  2  0
 99100  1  0
 99101  1  0
101102  1  0
102103  1  0
103104  1  0
104105  1  0
105106  2  0
105107  1  0
107108  1  0
108109  2  0
109110  1  0
110111  2  0
111112  1  0
112113  2  0
113114  1  0
114115  2  0
115116  1  0
116117  2  0
117118  1  0
118119  2  0
101120  2  0
 92121  1  0
121122  2  0
122123  1  0
123124  1  0
124125  1  0
125126  1  0
126127  2  0
126128  1  0
128129  1  0
129130  2  0
130131  1  0
131132  2  0
132133  1  0
133134  2  0
134135  1  0
135136  2  0
136137  1  0
137138  2  0
138139  1  0
139140  2  0
 34141  1  0
141142  1  0
142143  2  0
143144  1  0
144145  2  0
145146  1  0
146147  1  0
146148  1  0
146149  1  0
149150  2  0
150151  1  0
151152  1  0
152153  1  0
153154  1  0
154155  1  0
155156  2  0
155157  1  0
157158  1  0
158159  2  0
159160  1  0
160161  2  0
161162  1  0
162163  2  0
163164  1  0
164165  2  0
165166  1  0
166167  2  0
167168  1  0
168169  2  0
151170  2  0
170171  1  0
170172  1  0
172173  2  0
173174  1  0
145175  1  0
175176  2  0
176177  1  0
177178  1  0
178179  1  0
179180  1  0
180181  2  0
180182  1  0
182183  1  0
183184  2  0
184185  1  0
185186  2  0
186187  1  0
187188  2  0
188189  1  0
189190  2  0
190191  1  0
191192  2  0
192193  1  0
193194  2  0
 32195  1  0
195196  1  0
196197  1  0
197198  1  0
198199  1  0
199200  2  0
199201  1  0
201202  1  0
202203  2  0
203204  1  0
204205  2  0
205206  1  0
206207  2  0
207208  1  0
208209  2  0
209210  1  0
210211  2  0
211212  1  0
212213  2  0
195214  2  0
 28  4  1  0
214 29  1  0
 27 13  1  0
 69 36  1  0
 87 73  1  0
122 89  1  0
140126  1  0
176142  1  0
194180  1  0
213199  1  0
 21 16  1  0
 27 22  1  0
 67 43  1  0
 81 76  1  0
 87 82  1  0
120 96  1  0
134129  1  0
140135  1  0
173149  1  0
188183  1  0
194189  1  0
207202  1  0
213208  1  0
 66 52  1  0
119105  1  0
169155  1  0
 60 55  1  0
 66 61  1  0
113108  1  0
119114  1  0
163158  1  0
169164  1  0
M  END
>  <Candidate_ID>  (374) 
CAND_R2_374

>  <Candidate_Name>  (374) 
TetraDSi-hydroxy

>  <Parent_Seed_ID>  (374) 
TRAIN_103

>  <Parent_Name>  (374) 
TetraDSi

>  <Transformation_Code>  (374) 
hydroxy

>  <Design_Family>  (374) 
P-Si

>  <Preparation_Type>  (374) 
Additive

>  <Synthesis_Level>  (374) 
C

>  <Parent_Tanimoto_r3>  (374) 
0.8543689320388349

>  <Max_Train_Tanimoto_r3>  (374) 
0.8543689320388349

>  <Risk_Flags>  (374) 
high molecular weight; high DOPO count; exploratory only; excluded from formal screening

$$$$
CAND_R2_375 | TetraDSi-boronic-acid
     RDKit          2D

216247  0  0  0  0  0  0  0  0999 V2000
    3.0165  -12.4322    0.0000 C   0  0  0  0  0  0  0  0  0  0  0  0
    2.0524  -11.2832    0.0000 C   0  0  0  0  0  0  0  0  0  0  0  0
    1.0882  -10.1341    0.0000 C   0  0  0  0  0  0  0  0  0  0  0  0
    3.2014  -10.3190    0.0000 C   0  0  0  0  0  0  0  0  0  0  0  0
    4.6110  -10.8320    0.0000 C   0  0  0  0  0  0  0  0  0  0  0  0
    5.7600   -9.8678    0.0000 C   0  0  0  0  0  0  0  0  0  0  0  0
    5.4996   -8.3906    0.0000 C   0  0  0  0  0  0  0  0  0  0  0  0
    6.6486   -7.4264    0.0000 O   0  0  0  0  0  0  0  0  0  0  0  0
    4.0900   -7.8776    0.0000 C   0  0  0  0  0  0  0  0  0  0  0  0
    3.8296   -6.4004    0.0000 C   0  0  0  0  0  0  0  0  0  0  0  0
    2.4200   -5.8874    0.0000 C   0  0  0  0  0  0  0  0  0  0  0  0
    2.1595   -4.4101    0.0000 C   0  0  0  0  0  0  0  0  0  0  0  0
    0.7500   -3.8971    0.0000 P   0  0  0  0  0  0  0  0  0  0  0  0
    0.4895   -5.3743    0.0000 O   0  0  0  0  0  0  0  0  0  0  0  0
    1.5000   -2.5981    0.0000 O   0  0  0  0  0  0  0  0  0  0  0  0
    0.7500   -1.2990    0.0000 C   0  0  0  0  0  0  0  0  0  0  0  0
    1.5000    0.0000    0.0000 C   0  0  0  0  0  0  0  0  0  0  0  0
    0.7500    1.2990    0.0000 C   0  0  0  0  0  0  0  0  0  0  0  0
   -0.7500    1.2990    0.0000 C   0  0  0  0  0  0  0  0  0  0  0  0
   -1.5000    0.0000    0.0000 C   0  0  0  0  0  0  0  0  0  0  0  0
   -0.7500   -1.2990    0.0000 C   0  0  0  0  0  0  0  0  0  0  0  0
   -1.5000   -2.5981    0.0000 C   0  0  0  0  0  0  0  0  0  0  0  0
   -3.0000   -2.5981    0.0000 C   0  0  0  0  0  0  0  0  0  0  0  0
   -3.7500   -3.8971    0.0000 C   0  0  0  0  0  0  0  0  0  0  0  0
   -3.0000   -5.1962    0.0000 C   0  0  0  0  0  0  0  0  0  0  0  0
   -1.5000   -5.1962    0.0000 C   0  0  0  0  0  0  0  0  0  0  0  0
   -0.7500   -3.8971    0.0000 C   0  0  0  0  0  0  0  0  0  0  0  0
    2.9410   -8.8418    0.0000 C   0  0  0  0  0  0  0  0  0  0  0  0
    0.9033  -12.2474    0.0000 C   0  0  0  0  0  0  0  0  0  0  0  0
   -0.5062  -11.7343    0.0000 C   0  0  0  0  0  0  0  0  0  0  0  0
   -1.6553  -12.6985    0.0000 C   0  0  0  0  0  0  0  0  0  0  0  0
   -1.3948  -14.1757    0.0000 C   0  0  0  0  0  0  0  0  0  0  0  0
   -2.5439  -15.1399    0.0000 O   0  0  0  0  0  0  0  0  0  0  0  0
   -3.9534  -14.6269    0.0000 Si  0  0  0  0  0  4  0  0  0  0  0  0
   -5.3630  -14.1138    0.0000 O   0  0  0  0  0  0  0  0  0  0  0  0
   -6.5120  -15.0780    0.0000 C   0  0  0  0  0  0  0  0  0  0  0  0
   -6.2516  -16.5552    0.0000 C   0  0  0  0  0  0  0  0  0  0  0  0
   -7.4006  -17.5194    0.0000 C   0  0  0  0  0  0  0  0  0  0  0  0
   -8.8102  -17.0064    0.0000 C   0  0  0  0  0  0  0  0  0  0  0  0
   -9.9592  -17.9706    0.0000 C   0  0  0  0  0  0  0  0  0  0  0  0
  -10.9234  -16.8215    0.0000 C   0  0  0  0  0  0  0  0  0  0  0  0
   -8.9951  -19.1196    0.0000 C   0  0  0  0  0  0  0  0  0  0  0  0
  -11.1083  -18.9347    0.0000 C   0  0  0  0  0  0  0  0  0  0  0  0
  -10.8478  -20.4120    0.0000 C   0  0  0  0  0  0  0  0  0  0  0  0
  -11.9969  -21.3761    0.0000 C   0  0  0  0  0  0  0  0  0  0  0  0
  -13.4064  -20.8631    0.0000 C   0  0  0  0  0  0  0  0  0  0  0  0
  -14.5555  -21.8273    0.0000 O   0  0  0  0  0  0  0  0  0  0  0  0
  -13.6669  -19.3859    0.0000 C   0  0  0  0  0  0  0  0  0  0  0  0
  -15.0765  -18.8729    0.0000 C   0  0  0  0  0  0  0  0  0  0  0  0
  -16.2255  -19.8370    0.0000 C   0  0  0  0  0  0  0  0  0  0  0  0
  -17.6351  -19.3240    0.0000 C   0  0  0  0  0  0  0  0  0  0  0  0
  -18.7841  -20.2882    0.0000 P   0  0  0  0  0  0  0  0  0  0  0  0
  -17.6351  -21.2524    0.0000 O   0  0  0  0  0  0  0  0  0  0  0  0
  -19.5341  -18.9892    0.0000 O   0  0  0  0  0  0  0  0  0  0  0  0
  -21.0341  -18.9892    0.0000 C   0  0  0  0  0  0  0  0  0  0  0  0
  -21.7841  -17.6901    0.0000 C   0  0  0  0  0  0  0  0  0  0  0  0
  -23.2841  -17.6901    0.0000 C   0  0  0  0  0  0  0  0  0  0  0  0
  -24.0341  -18.9892    0.0000 C   0  0  0  0  0  0  0  0  0  0  0  0
  -23.2841  -20.2882    0.0000 C   0  0  0  0  0  0  0  0  0  0  0  0
  -21.7841  -20.2882    0.0000 C   0  0  0  0  0  0  0  0  0  0  0  0
  -21.0341  -21.5872    0.0000 C   0  0  0  0  0  0  0  0  0  0  0  0
  -21.7841  -22.8863    0.0000 C   0  0  0  0  0  0  0  0  0  0  0  0
  -21.0341  -24.1853    0.0000 C   0  0  0  0  0  0  0  0  0  0  0  0
  -19.5341  -24.1853    0.0000 C   0  0  0  0  0  0  0  0  0  0  0  0
  -18.7841  -22.8863    0.0000 C   0  0  0  0  0  0  0  0  0  0  0  0
  -19.5341  -21.5872    0.0000 C   0  0  0  0  0  0  0  0  0  0  0  0
  -12.5179  -18.4217    0.0000 C   0  0  0  0  0  0  0  0  0  0  0  0
   -9.0707  -15.5292    0.0000 C   0  0  0  0  0  0  0  0  0  0  0  0
   -7.9216  -14.5650    0.0000 C   0  0  0  0  0  0  0  0  0  0  0  0
   -8.1821  -13.0878    0.0000 C   0  0  0  0  0  0  0  0  0  0  0  0
   -9.5916  -12.5747    0.0000 C   0  0  0  0  0  0  0  0  0  0  0  0
   -9.8521  -11.0975    0.0000 C   0  0  0  0  0  0  0  0  0  0  0  0
  -11.2616  -10.5845    0.0000 P   0  0  0  0  0  0  0  0  0  0  0  0
  -10.5116   -9.2855    0.0000 O   0  0  0  0  0  0  0  0  0  0  0  0
  -11.5221  -12.0617    0.0000 O   0  0  0  0  0  0  0  0  0  0  0  0
  -12.9316  -12.5747    0.0000 C   0  0  0  0  0  0  0  0  0  0  0  0
  -13.1921  -14.0520    0.0000 C   0  0  0  0  0  0  0  0  0  0  0  0
  -14.6016  -14.5650    0.0000 C   0  0  0  0  0  0  0  0  0  0  0  0
  -15.7507  -13.6008    0.0000 C   0  0  0  0  0  0  0  0  0  0  0  0
  -15.4902  -12.1236    0.0000 C   0  0  0  0  0  0  0  0  0  0  0  0
  -14.0807  -11.6106    0.0000 C   0  0  0  0  0  0  0  0  0  0  0  0
  -13.8202  -10.1334    0.0000 C   0  0  0  0  0  0  0  0  0  0  0  0
  -14.9693   -9.1692    0.0000 C   0  0  0  0  0  0  0  0  0  0  0  0
  -14.7088   -7.6920    0.0000 C   0  0  0  0  0  0  0  0  0  0  0  0
  -13.2993   -7.1789    0.0000 C   0  0  0  0  0  0  0  0  0  0  0  0
  -12.1502   -8.1431    0.0000 C   0  0  0  0  0  0  0  0  0  0  0  0
  -12.4107   -9.6203    0.0000 C   0  0  0  0  0  0  0  0  0  0  0  0
   -4.4665  -16.0364    0.0000 O   0  0  0  0  0  0  0  0  0  0  0  0
   -3.5023  -17.1855    0.0000 C   0  0  0  0  0  0  0  0  0  0  0  0
   -2.0251  -16.9250    0.0000 C   0  0  0  0  0  0  0  0  0  0  0  0
   -1.0609  -18.0741    0.0000 C   0  0  0  0  0  0  0  0  0  0  0  0
   -1.5739  -19.4836    0.0000 C   0  0  0  0  0  0  0  0  0  0  0  0
   -0.6097  -20.6327    0.0000 C   0  0  0  0  0  0  0  0  0  0  0  0
    0.5393  -19.6685    0.0000 C   0  0  0  0  0  0  0  0  0  0  0  0
   -1.7588  -21.5969    0.0000 C   0  0  0  0  0  0  0  0  0  0  0  0
    0.3544  -21.7817    0.0000 C   0  0  0  0  0  0  0  0  0  0  0  0
    1.8316  -21.5213    0.0000 C   0  0  0  0  0  0  0  0  0  0  0  0
    2.7958  -22.6703    0.0000 C   0  0  0  0  0  0  0  0  0  0  0  0
    2.2828  -24.0799    0.0000 C   0  0  0  0  0  0  0  0  0  0  0  0
    3.2470  -25.2289    0.0000 O   0  0  0  0  0  0  0  0  0  0  0  0
    0.8056  -24.3403    0.0000 C   0  0  0  0  0  0  0  0  0  0  0  0
    0.2926  -25.7499    0.0000 C   0  0  0  0  0  0  0  0  0  0  0  0
   -1.1847  -26.0104    0.0000 C   0  0  0  0  0  0  0  0  0  0  0  0
   -1.6977  -27.4199    0.0000 C   0  0  0  0  0  0  0  0  0  0  0  0
   -3.1749  -27.6804    0.0000 P   0  0  0  0  0  0  0  0  0  0  0  0
   -3.1749  -26.1804    0.0000 O   0  0  0  0  0  0  0  0  0  0  0  0
   -2.6619  -29.0899    0.0000 O   0  0  0  0  0  0  0  0  0  0  0  0
   -3.6261  -30.2390    0.0000 C   0  0  0  0  0  0  0  0  0  0  0  0
   -3.1130  -31.6485    0.0000 C   0  0  0  0  0  0  0  0  0  0  0  0
   -4.0772  -32.7976    0.0000 C   0  0  0  0  0  0  0  0  0  0  0  0
   -5.5544  -32.5371    0.0000 C   0  0  0  0  0  0  0  0  0  0  0  0
   -6.0674  -31.1276    0.0000 C   0  0  0  0  0  0  0  0  0  0  0  0
   -5.1033  -29.9785    0.0000 C   0  0  0  0  0  0  0  0  0  0  0  0
   -5.6163  -28.5690    0.0000 C   0  0  0  0  0  0  0  0  0  0  0  0
   -7.0935  -28.3085    0.0000 C   0  0  0  0  0  0  0  0  0  0  0  0
   -7.6065  -26.8990    0.0000 C   0  0  0  0  0  0  0  0  0  0  0  0
   -6.6424  -25.7499    0.0000 C   0  0  0  0  0  0  0  0  0  0  0  0
   -5.1651  -26.0104    0.0000 C   0  0  0  0  0  0  0  0  0  0  0  0
   -4.6521  -27.4199    0.0000 C   0  0  0  0  0  0  0  0  0  0  0  0
   -0.1586  -23.1913    0.0000 C   0  0  0  0  0  0  0  0  0  0  0  0
   -3.0511  -19.7441    0.0000 C   0  0  0  0  0  0  0  0  0  0  0  0
   -4.0153  -18.5950    0.0000 C   0  0  0  0  0  0  0  0  0  0  0  0
   -5.4925  -18.8555    0.0000 C   0  0  0  0  0  0  0  0  0  0  0  0
   -6.0056  -20.2650    0.0000 C   0  0  0  0  0  0  0  0  0  0  0  0
   -5.0414  -21.4141    0.0000 C   0  0  0  0  0  0  0  0  0  0  0  0
   -5.5544  -22.8236    0.0000 P   0  0  0  0  0  0  0  0  0  0  0  0
   -4.0772  -23.0841    0.0000 O   0  0  0  0  0  0  0  0  0  0  0  0
   -6.8535  -22.0736    0.0000 O   0  0  0  0  0  0  0  0  0  0  0  0
   -8.1525  -22.8236    0.0000 C   0  0  0  0  0  0  0  0  0  0  0  0
   -9.4515  -22.0736    0.0000 C   0  0  0  0  0  0  0  0  0  0  0  0
  -10.7506  -22.8236    0.0000 C   0  0  0  0  0  0  0  0  0  0  0  0
  -10.7506  -24.3236    0.0000 C   0  0  0  0  0  0  0  0  0  0  0  0
   -9.4515  -25.0736    0.0000 C   0  0  0  0  0  0  0  0  0  0  0  0
   -8.1525  -24.3236    0.0000 C   0  0  0  0  0  0  0  0  0  0  0  0
   -6.8535  -25.0736    0.0000 C   0  0  0  0  0  0  0  0  0  0  0  0
   -6.8535  -26.5736    0.0000 C   0  0  0  0  0  0  0  0  0  0  0  0
   -5.5544  -27.3236    0.0000 C   0  0  0  0  0  0  0  0  0  0  0  0
   -4.2554  -26.5736    0.0000 C   0  0  0  0  0  0  0  0  0  0  0  0
   -4.2554  -25.0736    0.0000 C   0  0  0  0  0  0  0  0  0  0  0  0
   -5.5544  -24.3236    0.0000 C   0  0  0  0  0  0  0  0  0  0  0  0
   -3.4404  -13.2173    0.0000 O   0  0  0  0  0  0  0  0  0  0  0  0
   -4.4046  -12.0683    0.0000 C   0  0  0  0  0  0  0  0  0  0  0  0
   -3.8916  -10.6587    0.0000 C   0  0  0  0  0  0  0  0  0  0  0  0
   -4.8557   -9.5097    0.0000 C   0  0  0  0  0  0  0  0  0  0  0  0
   -6.3330   -9.7701    0.0000 C   0  0  0  0  0  0  0  0  0  0  0  0
   -7.2971   -8.6211    0.0000 C   0  0  0  0  0  0  0  0  0  0  0  0
   -8.4462   -9.5852    0.0000 C   0  0  0  0  0  0  0  0  0  0  0  0
   -6.1481   -7.6569    0.0000 C   0  0  0  0  0  0  0  0  0  0  0  0
   -8.2613   -7.4720    0.0000 C   0  0  0  0  0  0  0  0  0  0  0  0
   -9.7385   -7.7325    0.0000 C   0  0  0  0  0  0  0  0  0  0  0  0
  -10.7027   -6.5834    0.0000 C   0  0  0  0  0  0  0  0  0  0  0  0
  -12.1799   -6.8439    0.0000 C   0  0  0  0  0  0  0  0  0  0  0  0
  -13.1441   -5.6948    0.0000 C   0  0  0  0  0  0  0  0  0  0  0  0
  -14.6213   -5.9553    0.0000 C   0  0  0  0  0  0  0  0  0  0  0  0
  -15.5855   -4.8062    0.0000 P   0  0  0  0  0  0  0  0  0  0  0  0
  -14.2865   -4.0562    0.0000 O   0  0  0  0  0  0  0  0  0  0  0  0
  -16.5497   -5.9553    0.0000 O   0  0  0  0  0  0  0  0  0  0  0  0
  -18.0269   -5.6948    0.0000 C   0  0  0  0  0  0  0  0  0  0  0  0
  -18.9911   -6.8439    0.0000 C   0  0  0  0  0  0  0  0  0  0  0  0
  -20.4683   -6.5834    0.0000 C   0  0  0  0  0  0  0  0  0  0  0  0
  -20.9813   -5.1739    0.0000 C   0  0  0  0  0  0  0  0  0  0  0  0
  -20.0171   -4.0248    0.0000 C   0  0  0  0  0  0  0  0  0  0  0  0
  -18.5399   -4.2853    0.0000 C   0  0  0  0  0  0  0  0  0  0  0  0
  -17.5757   -3.1362    0.0000 C   0  0  0  0  0  0  0  0  0  0  0  0
  -18.0888   -1.7267    0.0000 C   0  0  0  0  0  0  0  0  0  0  0  0
  -17.1246   -0.5776    0.0000 C   0  0  0  0  0  0  0  0  0  0  0  0
  -15.6474   -0.8381    0.0000 C   0  0  0  0  0  0  0  0  0  0  0  0
  -15.1343   -2.2476    0.0000 C   0  0  0  0  0  0  0  0  0  0  0  0
  -16.0985   -3.3967    0.0000 C   0  0  0  0  0  0  0  0  0  0  0  0
  -10.1897   -5.1739    0.0000 C   0  0  0  0  0  0  0  0  0  0  0  0
  -11.1539   -4.0248    0.0000 O   0  0  0  0  0  0  0  0  0  0  0  0
   -8.7125   -4.9134    0.0000 C   0  0  0  0  0  0  0  0  0  0  0  0
   -7.7483   -6.0625    0.0000 C   0  0  0  0  0  0  0  0  0  0  0  0
   -6.2711   -5.8020    0.0000 B   0  0  0  0  0  0  0  0  0  0  0  0
   -5.7580   -4.3924    0.0000 O   0  0  0  0  0  0  0  0  0  0  0  0
   -5.3069   -6.9511    0.0000 O   0  0  0  0  0  0  0  0  0  0  0  0
   -6.8460  -11.1797    0.0000 C   0  0  0  0  0  0  0  0  0  0  0  0
   -5.8818  -12.3287    0.0000 C   0  0  0  0  0  0  0  0  0  0  0  0
   -6.3948  -13.7383    0.0000 C   0  0  0  0  0  0  0  0  0  0  0  0
   -7.8720  -13.9987    0.0000 C   0  0  0  0  0  0  0  0  0  0  0  0
   -8.3851  -15.4083    0.0000 C   0  0  0  0  0  0  0  0  0  0  0  0
   -9.8623  -15.6688    0.0000 P   0  0  0  0  0  0  0  0  0  0  0  0
   -9.8623  -14.1688    0.0000 O   0  0  0  0  0  0  0  0  0  0  0  0
   -9.3493  -17.0783    0.0000 O   0  0  0  0  0  0  0  0  0  0  0  0
  -10.3134  -18.2274    0.0000 C   0  0  0  0  0  0  0  0  0  0  0  0
   -9.8004  -19.6369    0.0000 C   0  0  0  0  0  0  0  0  0  0  0  0
  -10.7646  -20.7860    0.0000 C   0  0  0  0  0  0  0  0  0  0  0  0
  -12.2418  -20.5255    0.0000 C   0  0  0  0  0  0  0  0  0  0  0  0
  -12.7548  -19.1160    0.0000 C   0  0  0  0  0  0  0  0  0  0  0  0
  -11.7907  -17.9669    0.0000 C   0  0  0  0  0  0  0  0  0  0  0  0
  -12.3037  -16.5574    0.0000 C   0  0  0  0  0  0  0  0  0  0  0  0
  -13.7809  -16.2969    0.0000 C   0  0  0  0  0  0  0  0  0  0  0  0
  -14.2939  -14.8873    0.0000 C   0  0  0  0  0  0  0  0  0  0  0  0
  -13.3297  -13.7383    0.0000 C   0  0  0  0  0  0  0  0  0  0  0  0
  -11.8525  -13.9987    0.0000 C   0  0  0  0  0  0  0  0  0  0  0  0
  -11.3395  -15.4083    0.0000 C   0  0  0  0  0  0  0  0  0  0  0  0
    0.0147  -14.6887    0.0000 C   0  0  0  0  0  0  0  0  0  0  0  0
    0.2752  -16.1660    0.0000 C   0  0  0  0  0  0  0  0  0  0  0  0
    1.6847  -16.6790    0.0000 C   0  0  0  0  0  0  0  0  0  0  0  0
    1.9452  -18.1562    0.0000 C   0  0  0  0  0  0  0  0  0  0  0  0
    3.3547  -18.6692    0.0000 P   0  0  0  0  0  0  0  0  0  0  0  0
    3.6152  -17.1920    0.0000 O   0  0  0  0  0  0  0  0  0  0  0  0
    2.6047  -19.9683    0.0000 O   0  0  0  0  0  0  0  0  0  0  0  0
    3.3547  -21.2673    0.0000 C   0  0  0  0  0  0  0  0  0  0  0  0
    2.6047  -22.5663    0.0000 C   0  0  0  0  0  0  0  0  0  0  0  0
    3.3547  -23.8654    0.0000 C   0  0  0  0  0  0  0  0  0  0  0  0
    4.8547  -23.8654    0.0000 C   0  0  0  0  0  0  0  0  0  0  0  0
    5.6047  -22.5663    0.0000 C   0  0  0  0  0  0  0  0  0  0  0  0
    4.8547  -21.2673    0.0000 C   0  0  0  0  0  0  0  0  0  0  0  0
    5.6047  -19.9683    0.0000 C   0  0  0  0  0  0  0  0  0  0  0  0
    7.1047  -19.9683    0.0000 C   0  0  0  0  0  0  0  0  0  0  0  0
    7.8547  -18.6692    0.0000 C   0  0  0  0  0  0  0  0  0  0  0  0
    7.1047  -17.3702    0.0000 C   0  0  0  0  0  0  0  0  0  0  0  0
    5.6047  -17.3702    0.0000 C   0  0  0  0  0  0  0  0  0  0  0  0
    4.8547  -18.6692    0.0000 C   0  0  0  0  0  0  0  0  0  0  0  0
    1.1638  -13.7246    0.0000 C   0  0  0  0  0  0  0  0  0  0  0  0
  1  2  1  0
  2  3  1  0
  2  4  1  0
  4  5  2  0
  5  6  1  0
  6  7  2  0
  7  8  1  0
  7  9  1  0
  9 10  1  0
 10 11  1  0
 11 12  1  0
 12 13  1  0
 13 14  2  0
 13 15  1  0
 15 16  1  0
 16 17  2  0
 17 18  1  0
 18 19  2  0
 19 20  1  0
 20 21  2  0
 21 22  1  0
 22 23  2  0
 23 24  1  0
 24 25  2  0
 25 26  1  0
 26 27  2  0
  9 28  2  0
  2 29  1  0
 29 30  2  0
 30 31  1  0
 31 32  2  0
 32 33  1  0
 33 34  1  0
 34 35  1  0
 35 36  1  0
 36 37  2  0
 37 38  1  0
 38 39  2  0
 39 40  1  0
 40 41  1  0
 40 42  1  0
 40 43  1  0
 43 44  2  0
 44 45  1  0
 45 46  2  0
 46 47  1  0
 46 48  1  0
 48 49  1  0
 49 50  1  0
 50 51  1  0
 51 52  1  0
 52 53  2  0
 52 54  1  0
 54 55  1  0
 55 56  2  0
 56 57  1  0
 57 58  2  0
 58 59  1  0
 59 60  2  0
 60 61  1  0
 61 62  2  0
 62 63  1  0
 63 64  2  0
 64 65  1  0
 65 66  2  0
 48 67  2  0
 39 68  1  0
 68 69  2  0
 69 70  1  0
 70 71  1  0
 71 72  1  0
 72 73  1  0
 73 74  2  0
 73 75  1  0
 75 76  1  0
 76 77  2  0
 77 78  1  0
 78 79  2  0
 79 80  1  0
 80 81  2  0
 81 82  1  0
 82 83  2  0
 83 84  1  0
 84 85  2  0
 85 86  1  0
 86 87  2  0
 34 88  1  0
 88 89  1  0
 89 90  2  0
 90 91  1  0
 91 92  2  0
 92 93  1  0
 93 94  1  0
 93 95  1  0
 93 96  1  0
 96 97  2  0
 97 98  1  0
 98 99  2  0
 99100  1  0
 99101  1  0
101102  1  0
102103  1  0
103104  1  0
104105  1  0
105106  2  0
105107  1  0
107108  1  0
108109  2  0
109110  1  0
110111  2  0
111112  1  0
112113  2  0
113114  1  0
114115  2  0
115116  1  0
116117  2  0
117118  1  0
118119  2  0
101120  2  0
 92121  1  0
121122  2  0
122123  1  0
123124  1  0
124125  1  0
125126  1  0
126127  2  0
126128  1  0
128129  1  0
129130  2  0
130131  1  0
131132  2  0
132133  1  0
133134  2  0
134135  1  0
135136  2  0
136137  1  0
137138  2  0
138139  1  0
139140  2  0
 34141  1  0
141142  1  0
142143  2  0
143144  1  0
144145  2  0
145146  1  0
146147  1  0
146148  1  0
146149  1  0
149150  2  0
150151  1  0
151152  1  0
152153  1  0
153154  1  0
154155  1  0
155156  2  0
155157  1  0
157158  1  0
158159  2  0
159160  1  0
160161  2  0
161162  1  0
162163  2  0
163164  1  0
164165  2  0
165166  1  0
166167  2  0
167168  1  0
168169  2  0
151170  2  0
170171  1  0
170172  1  0
172173  2  0
173174  1  0
174175  1  0
174176  1  0
145177  1  0
177178  2  0
178179  1  0
179180  1  0
180181  1  0
181182  1  0
182183  2  0
182184  1  0
184185  1  0
185186  2  0
186187  1  0
187188  2  0
188189  1  0
189190  2  0
190191  1  0
191192  2  0
192193  1  0
193194  2  0
194195  1  0
195196  2  0
 32197  1  0
197198  1  0
198199  1  0
199200  1  0
200201  1  0
201202  2  0
201203  1  0
203204  1  0
204205  2  0
205206  1  0
206207  2  0
207208  1  0
208209  2  0
209210  1  0
210211  2  0
211212  1  0
212213  2  0
213214  1  0
214215  2  0
197216  2  0
 28  4  1  0
216 29  1  0
 27 13  1  0
 69 36  1  0
 87 73  1  0
122 89  1  0
140126  1  0
178142  1  0
196182  1  0
215201  1  0
 21 16  1  0
 27 22  1  0
 67 43  1  0
 81 76  1  0
 87 82  1  0
120 96  1  0
134129  1  0
140135  1  0
173149  1  0
190185  1  0
196191  1  0
209204  1  0
215210  1  0
 66 52  1  0
119105  1  0
169155  1  0
 60 55  1  0
 66 61  1  0
113108  1  0
119114  1  0
163158  1  0
169164  1  0
M  END
>  <Candidate_ID>  (375) 
CAND_R2_375

>  <Candidate_Name>  (375) 
TetraDSi-boronic-acid

>  <Parent_Seed_ID>  (375) 
TRAIN_103

>  <Parent_Name>  (375) 
TetraDSi

>  <Transformation_Code>  (375) 
boronic_acid

>  <Design_Family>  (375) 
P-Si-B

>  <Preparation_Type>  (375) 
Additive

>  <Synthesis_Level>  (375) 
C

>  <Parent_Tanimoto_r3>  (375) 
0.8301886792452831

>  <Max_Train_Tanimoto_r3>  (375) 
0.8301886792452831

>  <Risk_Flags>  (375) 
high molecular weight; high DOPO count; exploratory only; excluded from formal screening

$$$$
CAND_R2_376 | TetraDSi-glycidyloxy
     RDKit          2D

218250  0  0  0  0  0  0  0  0999 V2000
    3.0165  -12.4322    0.0000 C   0  0  0  0  0  0  0  0  0  0  0  0
    2.0524  -11.2832    0.0000 C   0  0  0  0  0  0  0  0  0  0  0  0
    1.0882  -10.1341    0.0000 C   0  0  0  0  0  0  0  0  0  0  0  0
    3.2014  -10.3190    0.0000 C   0  0  0  0  0  0  0  0  0  0  0  0
    4.6110  -10.8320    0.0000 C   0  0  0  0  0  0  0  0  0  0  0  0
    5.7600   -9.8678    0.0000 C   0  0  0  0  0  0  0  0  0  0  0  0
    5.4996   -8.3906    0.0000 C   0  0  0  0  0  0  0  0  0  0  0  0
    6.6486   -7.4264    0.0000 O   0  0  0  0  0  0  0  0  0  0  0  0
    4.0900   -7.8776    0.0000 C   0  0  0  0  0  0  0  0  0  0  0  0
    3.8296   -6.4004    0.0000 C   0  0  0  0  0  0  0  0  0  0  0  0
    2.4200   -5.8874    0.0000 C   0  0  0  0  0  0  0  0  0  0  0  0
    2.1595   -4.4101    0.0000 C   0  0  0  0  0  0  0  0  0  0  0  0
    0.7500   -3.8971    0.0000 P   0  0  0  0  0  0  0  0  0  0  0  0
    0.4895   -5.3743    0.0000 O   0  0  0  0  0  0  0  0  0  0  0  0
    1.5000   -2.5981    0.0000 O   0  0  0  0  0  0  0  0  0  0  0  0
    0.7500   -1.2990    0.0000 C   0  0  0  0  0  0  0  0  0  0  0  0
    1.5000    0.0000    0.0000 C   0  0  0  0  0  0  0  0  0  0  0  0
    0.7500    1.2990    0.0000 C   0  0  0  0  0  0  0  0  0  0  0  0
   -0.7500    1.2990    0.0000 C   0  0  0  0  0  0  0  0  0  0  0  0
   -1.5000    0.0000    0.0000 C   0  0  0  0  0  0  0  0  0  0  0  0
   -0.7500   -1.2990    0.0000 C   0  0  0  0  0  0  0  0  0  0  0  0
   -1.5000   -2.5981    0.0000 C   0  0  0  0  0  0  0  0  0  0  0  0
   -3.0000   -2.5981    0.0000 C   0  0  0  0  0  0  0  0  0  0  0  0
   -3.7500   -3.8971    0.0000 C   0  0  0  0  0  0  0  0  0  0  0  0
   -3.0000   -5.1962    0.0000 C   0  0  0  0  0  0  0  0  0  0  0  0
   -1.5000   -5.1962    0.0000 C   0  0  0  0  0  0  0  0  0  0  0  0
   -0.7500   -3.8971    0.0000 C   0  0  0  0  0  0  0  0  0  0  0  0
    2.9410   -8.8418    0.0000 C   0  0  0  0  0  0  0  0  0  0  0  0
    0.9033  -12.2474    0.0000 C   0  0  0  0  0  0  0  0  0  0  0  0
   -0.5062  -11.7343    0.0000 C   0  0  0  0  0  0  0  0  0  0  0  0
   -1.6553  -12.6985    0.0000 C   0  0  0  0  0  0  0  0  0  0  0  0
   -1.3948  -14.1757    0.0000 C   0  0  0  0  0  0  0  0  0  0  0  0
   -2.5439  -15.1399    0.0000 O   0  0  0  0  0  0  0  0  0  0  0  0
   -3.9534  -14.6269    0.0000 Si  0  0  0  0  0  4  0  0  0  0  0  0
   -5.3630  -14.1138    0.0000 O   0  0  0  0  0  0  0  0  0  0  0  0
   -6.5120  -15.0780    0.0000 C   0  0  0  0  0  0  0  0  0  0  0  0
   -6.2516  -16.5552    0.0000 C   0  0  0  0  0  0  0  0  0  0  0  0
   -7.4006  -17.5194    0.0000 C   0  0  0  0  0  0  0  0  0  0  0  0
   -8.8102  -17.0064    0.0000 C   0  0  0  0  0  0  0  0  0  0  0  0
   -9.9592  -17.9706    0.0000 C   0  0  0  0  0  0  0  0  0  0  0  0
  -10.9234  -16.8215    0.0000 C   0  0  0  0  0  0  0  0  0  0  0  0
   -8.9951  -19.1196    0.0000 C   0  0  0  0  0  0  0  0  0  0  0  0
  -11.1083  -18.9347    0.0000 C   0  0  0  0  0  0  0  0  0  0  0  0
  -10.8478  -20.4120    0.0000 C   0  0  0  0  0  0  0  0  0  0  0  0
  -11.9969  -21.3761    0.0000 C   0  0  0  0  0  0  0  0  0  0  0  0
  -13.4064  -20.8631    0.0000 C   0  0  0  0  0  0  0  0  0  0  0  0
  -14.5555  -21.8273    0.0000 O   0  0  0  0  0  0  0  0  0  0  0  0
  -13.6669  -19.3859    0.0000 C   0  0  0  0  0  0  0  0  0  0  0  0
  -15.0765  -18.8729    0.0000 C   0  0  0  0  0  0  0  0  0  0  0  0
  -16.2255  -19.8370    0.0000 C   0  0  0  0  0  0  0  0  0  0  0  0
  -17.6351  -19.3240    0.0000 C   0  0  0  0  0  0  0  0  0  0  0  0
  -18.7841  -20.2882    0.0000 P   0  0  0  0  0  0  0  0  0  0  0  0
  -17.6351  -21.2524    0.0000 O   0  0  0  0  0  0  0  0  0  0  0  0
  -19.5341  -18.9892    0.0000 O   0  0  0  0  0  0  0  0  0  0  0  0
  -21.0341  -18.9892    0.0000 C   0  0  0  0  0  0  0  0  0  0  0  0
  -21.7841  -17.6901    0.0000 C   0  0  0  0  0  0  0  0  0  0  0  0
  -23.2841  -17.6901    0.0000 C   0  0  0  0  0  0  0  0  0  0  0  0
  -24.0341  -18.9892    0.0000 C   0  0  0  0  0  0  0  0  0  0  0  0
  -23.2841  -20.2882    0.0000 C   0  0  0  0  0  0  0  0  0  0  0  0
  -21.7841  -20.2882    0.0000 C   0  0  0  0  0  0  0  0  0  0  0  0
  -21.0341  -21.5872    0.0000 C   0  0  0  0  0  0  0  0  0  0  0  0
  -21.7841  -22.8863    0.0000 C   0  0  0  0  0  0  0  0  0  0  0  0
  -21.0341  -24.1853    0.0000 C   0  0  0  0  0  0  0  0  0  0  0  0
  -19.5341  -24.1853    0.0000 C   0  0  0  0  0  0  0  0  0  0  0  0
  -18.7841  -22.8863    0.0000 C   0  0  0  0  0  0  0  0  0  0  0  0
  -19.5341  -21.5872    0.0000 C   0  0  0  0  0  0  0  0  0  0  0  0
  -12.5179  -18.4217    0.0000 C   0  0  0  0  0  0  0  0  0  0  0  0
   -9.0707  -15.5292    0.0000 C   0  0  0  0  0  0  0  0  0  0  0  0
   -7.9216  -14.5650    0.0000 C   0  0  0  0  0  0  0  0  0  0  0  0
   -8.1821  -13.0878    0.0000 C   0  0  0  0  0  0  0  0  0  0  0  0
   -9.5916  -12.5747    0.0000 C   0  0  0  0  0  0  0  0  0  0  0  0
   -9.8521  -11.0975    0.0000 C   0  0  0  0  0  0  0  0  0  0  0  0
  -11.2616  -10.5845    0.0000 P   0  0  0  0  0  0  0  0  0  0  0  0
  -10.5116   -9.2855    0.0000 O   0  0  0  0  0  0  0  0  0  0  0  0
  -11.5221  -12.0617    0.0000 O   0  0  0  0  0  0  0  0  0  0  0  0
  -12.9316  -12.5747    0.0000 C   0  0  0  0  0  0  0  0  0  0  0  0
  -13.1921  -14.0520    0.0000 C   0  0  0  0  0  0  0  0  0  0  0  0
  -14.6016  -14.5650    0.0000 C   0  0  0  0  0  0  0  0  0  0  0  0
  -15.7507  -13.6008    0.0000 C   0  0  0  0  0  0  0  0  0  0  0  0
  -15.4902  -12.1236    0.0000 C   0  0  0  0  0  0  0  0  0  0  0  0
  -14.0807  -11.6106    0.0000 C   0  0  0  0  0  0  0  0  0  0  0  0
  -13.8202  -10.1334    0.0000 C   0  0  0  0  0  0  0  0  0  0  0  0
  -14.9693   -9.1692    0.0000 C   0  0  0  0  0  0  0  0  0  0  0  0
  -14.7088   -7.6920    0.0000 C   0  0  0  0  0  0  0  0  0  0  0  0
  -13.2993   -7.1789    0.0000 C   0  0  0  0  0  0  0  0  0  0  0  0
  -12.1502   -8.1431    0.0000 C   0  0  0  0  0  0  0  0  0  0  0  0
  -12.4107   -9.6203    0.0000 C   0  0  0  0  0  0  0  0  0  0  0  0
   -4.4665  -16.0364    0.0000 O   0  0  0  0  0  0  0  0  0  0  0  0
   -3.5023  -17.1855    0.0000 C   0  0  0  0  0  0  0  0  0  0  0  0
   -2.0251  -16.9250    0.0000 C   0  0  0  0  0  0  0  0  0  0  0  0
   -1.0609  -18.0741    0.0000 C   0  0  0  0  0  0  0  0  0  0  0  0
   -1.5739  -19.4836    0.0000 C   0  0  0  0  0  0  0  0  0  0  0  0
   -0.6097  -20.6327    0.0000 C   0  0  0  0  0  0  0  0  0  0  0  0
    0.5393  -19.6685    0.0000 C   0  0  0  0  0  0  0  0  0  0  0  0
   -1.7588  -21.5969    0.0000 C   0  0  0  0  0  0  0  0  0  0  0  0
    0.3544  -21.7817    0.0000 C   0  0  0  0  0  0  0  0  0  0  0  0
    1.8316  -21.5213    0.0000 C   0  0  0  0  0  0  0  0  0  0  0  0
    2.7958  -22.6703    0.0000 C   0  0  0  0  0  0  0  0  0  0  0  0
    2.2828  -24.0799    0.0000 C   0  0  0  0  0  0  0  0  0  0  0  0
    3.2470  -25.2289    0.0000 O   0  0  0  0  0  0  0  0  0  0  0  0
    0.8056  -24.3403    0.0000 C   0  0  0  0  0  0  0  0  0  0  0  0
    0.2926  -25.7499    0.0000 C   0  0  0  0  0  0  0  0  0  0  0  0
   -1.1847  -26.0104    0.0000 C   0  0  0  0  0  0  0  0  0  0  0  0
   -1.6977  -27.4199    0.0000 C   0  0  0  0  0  0  0  0  0  0  0  0
   -3.1749  -27.6804    0.0000 P   0  0  0  0  0  0  0  0  0  0  0  0
   -3.1749  -26.1804    0.0000 O   0  0  0  0  0  0  0  0  0  0  0  0
   -2.6619  -29.0899    0.0000 O   0  0  0  0  0  0  0  0  0  0  0  0
   -3.6261  -30.2390    0.0000 C   0  0  0  0  0  0  0  0  0  0  0  0
   -3.1130  -31.6485    0.0000 C   0  0  0  0  0  0  0  0  0  0  0  0
   -4.0772  -32.7976    0.0000 C   0  0  0  0  0  0  0  0  0  0  0  0
   -5.5544  -32.5371    0.0000 C   0  0  0  0  0  0  0  0  0  0  0  0
   -6.0674  -31.1276    0.0000 C   0  0  0  0  0  0  0  0  0  0  0  0
   -5.1033  -29.9785    0.0000 C   0  0  0  0  0  0  0  0  0  0  0  0
   -5.6163  -28.5690    0.0000 C   0  0  0  0  0  0  0  0  0  0  0  0
   -7.0935  -28.3085    0.0000 C   0  0  0  0  0  0  0  0  0  0  0  0
   -7.6065  -26.8990    0.0000 C   0  0  0  0  0  0  0  0  0  0  0  0
   -6.6424  -25.7499    0.0000 C   0  0  0  0  0  0  0  0  0  0  0  0
   -5.1651  -26.0104    0.0000 C   0  0  0  0  0  0  0  0  0  0  0  0
   -4.6521  -27.4199    0.0000 C   0  0  0  0  0  0  0  0  0  0  0  0
   -0.1586  -23.1913    0.0000 C   0  0  0  0  0  0  0  0  0  0  0  0
   -3.0511  -19.7441    0.0000 C   0  0  0  0  0  0  0  0  0  0  0  0
   -4.0153  -18.5950    0.0000 C   0  0  0  0  0  0  0  0  0  0  0  0
   -5.4925  -18.8555    0.0000 C   0  0  0  0  0  0  0  0  0  0  0  0
   -6.0056  -20.2650    0.0000 C   0  0  0  0  0  0  0  0  0  0  0  0
   -5.0414  -21.4141    0.0000 C   0  0  0  0  0  0  0  0  0  0  0  0
   -5.5544  -22.8236    0.0000 P   0  0  0  0  0  0  0  0  0  0  0  0
   -4.0772  -23.0841    0.0000 O   0  0  0  0  0  0  0  0  0  0  0  0
   -6.8535  -22.0736    0.0000 O   0  0  0  0  0  0  0  0  0  0  0  0
   -8.1525  -22.8236    0.0000 C   0  0  0  0  0  0  0  0  0  0  0  0
   -9.4515  -22.0736    0.0000 C   0  0  0  0  0  0  0  0  0  0  0  0
  -10.7506  -22.8236    0.0000 C   0  0  0  0  0  0  0  0  0  0  0  0
  -10.7506  -24.3236    0.0000 C   0  0  0  0  0  0  0  0  0  0  0  0
   -9.4515  -25.0736    0.0000 C   0  0  0  0  0  0  0  0  0  0  0  0
   -8.1525  -24.3236    0.0000 C   0  0  0  0  0  0  0  0  0  0  0  0
   -6.8535  -25.0736    0.0000 C   0  0  0  0  0  0  0  0  0  0  0  0
   -6.8535  -26.5736    0.0000 C   0  0  0  0  0  0  0  0  0  0  0  0
   -5.5544  -27.3236    0.0000 C   0  0  0  0  0  0  0  0  0  0  0  0
   -4.2554  -26.5736    0.0000 C   0  0  0  0  0  0  0  0  0  0  0  0
   -4.2554  -25.0736    0.0000 C   0  0  0  0  0  0  0  0  0  0  0  0
   -5.5544  -24.3236    0.0000 C   0  0  0  0  0  0  0  0  0  0  0  0
   -3.4404  -13.2173    0.0000 O   0  0  0  0  0  0  0  0  0  0  0  0
   -4.4046  -12.0683    0.0000 C   0  0  0  0  0  0  0  0  0  0  0  0
   -3.8916  -10.6587    0.0000 C   0  0  0  0  0  0  0  0  0  0  0  0
   -4.8557   -9.5097    0.0000 C   0  0  0  0  0  0  0  0  0  0  0  0
   -6.3330   -9.7701    0.0000 C   0  0  0  0  0  0  0  0  0  0  0  0
   -7.2971   -8.6211    0.0000 C   0  0  0  0  0  0  0  0  0  0  0  0
   -8.4462   -9.5852    0.0000 C   0  0  0  0  0  0  0  0  0  0  0  0
   -6.1481   -7.6569    0.0000 C   0  0  0  0  0  0  0  0  0  0  0  0
   -8.2613   -7.4720    0.0000 C   0  0  0  0  0  0  0  0  0  0  0  0
   -9.7385   -7.7325    0.0000 C   0  0  0  0  0  0  0  0  0  0  0  0
  -10.7027   -6.5834    0.0000 C   0  0  0  0  0  0  0  0  0  0  0  0
  -12.1799   -6.8439    0.0000 C   0  0  0  0  0  0  0  0  0  0  0  0
  -13.1441   -5.6948    0.0000 C   0  0  0  0  0  0  0  0  0  0  0  0
  -14.6213   -5.9553    0.0000 C   0  0  0  0  0  0  0  0  0  0  0  0
  -15.5855   -4.8062    0.0000 P   0  0  0  0  0  0  0  0  0  0  0  0
  -14.2865   -4.0562    0.0000 O   0  0  0  0  0  0  0  0  0  0  0  0
  -16.5497   -5.9553    0.0000 O   0  0  0  0  0  0  0  0  0  0  0  0
  -18.0269   -5.6948    0.0000 C   0  0  0  0  0  0  0  0  0  0  0  0
  -18.9911   -6.8439    0.0000 C   0  0  0  0  0  0  0  0  0  0  0  0
  -20.4683   -6.5834    0.0000 C   0  0  0  0  0  0  0  0  0  0  0  0
  -20.9813   -5.1739    0.0000 C   0  0  0  0  0  0  0  0  0  0  0  0
  -20.0171   -4.0248    0.0000 C   0  0  0  0  0  0  0  0  0  0  0  0
  -18.5399   -4.2853    0.0000 C   0  0  0  0  0  0  0  0  0  0  0  0
  -17.5757   -3.1362    0.0000 C   0  0  0  0  0  0  0  0  0  0  0  0
  -18.0888   -1.7267    0.0000 C   0  0  0  0  0  0  0  0  0  0  0  0
  -17.1246   -0.5776    0.0000 C   0  0  0  0  0  0  0  0  0  0  0  0
  -15.6474   -0.8381    0.0000 C   0  0  0  0  0  0  0  0  0  0  0  0
  -15.1343   -2.2476    0.0000 C   0  0  0  0  0  0  0  0  0  0  0  0
  -16.0985   -3.3967    0.0000 C   0  0  0  0  0  0  0  0  0  0  0  0
  -10.1897   -5.1739    0.0000 C   0  0  0  0  0  0  0  0  0  0  0  0
  -11.1539   -4.0248    0.0000 O   0  0  0  0  0  0  0  0  0  0  0  0
   -8.7125   -4.9134    0.0000 C   0  0  0  0  0  0  0  0  0  0  0  0
   -7.7483   -6.0625    0.0000 C   0  0  0  0  0  0  0  0  0  0  0  0
   -6.2711   -5.8020    0.0000 O   0  0  0  0  0  0  0  0  0  0  0  0
   -5.7580   -4.3924    0.0000 C   0  0  0  0  0  0  0  0  0  0  0  0
   -6.7222   -3.2434    0.0000 C   0  0  0  0  0  0  0  0  0  0  0  0
   -8.1318   -2.7303    0.0000 C   0  0  0  0  0  0  0  0  0  0  0  0
   -6.9827   -1.7662    0.0000 O   0  0  0  0  0  0  0  0  0  0  0  0
   -6.8460  -11.1797    0.0000 C   0  0  0  0  0  0  0  0  0  0  0  0
   -5.8818  -12.3287    0.0000 C   0  0  0  0  0  0  0  0  0  0  0  0
   -6.3948  -13.7383    0.0000 C   0  0  0  0  0  0  0  0  0  0  0  0
   -7.8720  -13.9987    0.0000 C   0  0  0  0  0  0  0  0  0  0  0  0
   -8.3851  -15.4083    0.0000 C   0  0  0  0  0  0  0  0  0  0  0  0
   -9.8623  -15.6688    0.0000 P   0  0  0  0  0  0  0  0  0  0  0  0
   -9.8623  -14.1688    0.0000 O   0  0  0  0  0  0  0  0  0  0  0  0
   -9.3493  -17.0783    0.0000 O   0  0  0  0  0  0  0  0  0  0  0  0
  -10.3134  -18.2274    0.0000 C   0  0  0  0  0  0  0  0  0  0  0  0
   -9.8004  -19.6369    0.0000 C   0  0  0  0  0  0  0  0  0  0  0  0
  -10.7646  -20.7860    0.0000 C   0  0  0  0  0  0  0  0  0  0  0  0
  -12.2418  -20.5255    0.0000 C   0  0  0  0  0  0  0  0  0  0  0  0
  -12.7548  -19.1160    0.0000 C   0  0  0  0  0  0  0  0  0  0  0  0
  -11.7907  -17.9669    0.0000 C   0  0  0  0  0  0  0  0  0  0  0  0
  -12.3037  -16.5574    0.0000 C   0  0  0  0  0  0  0  0  0  0  0  0
  -13.7809  -16.2969    0.0000 C   0  0  0  0  0  0  0  0  0  0  0  0
  -14.2939  -14.8873    0.0000 C   0  0  0  0  0  0  0  0  0  0  0  0
  -13.3297  -13.7383    0.0000 C   0  0  0  0  0  0  0  0  0  0  0  0
  -11.8525  -13.9987    0.0000 C   0  0  0  0  0  0  0  0  0  0  0  0
  -11.3395  -15.4083    0.0000 C   0  0  0  0  0  0  0  0  0  0  0  0
    0.0147  -14.6887    0.0000 C   0  0  0  0  0  0  0  0  0  0  0  0
    0.2752  -16.1660    0.0000 C   0  0  0  0  0  0  0  0  0  0  0  0
    1.6847  -16.6790    0.0000 C   0  0  0  0  0  0  0  0  0  0  0  0
    1.9452  -18.1562    0.0000 C   0  0  0  0  0  0  0  0  0  0  0  0
    3.3547  -18.6692    0.0000 P   0  0  0  0  0  0  0  0  0  0  0  0
    3.6152  -17.1920    0.0000 O   0  0  0  0  0  0  0  0  0  0  0  0
    2.6047  -19.9683    0.0000 O   0  0  0  0  0  0  0  0  0  0  0  0
    3.3547  -21.2673    0.0000 C   0  0  0  0  0  0  0  0  0  0  0  0
    2.6047  -22.5663    0.0000 C   0  0  0  0  0  0  0  0  0  0  0  0
    3.3547  -23.8654    0.0000 C   0  0  0  0  0  0  0  0  0  0  0  0
    4.8547  -23.8654    0.0000 C   0  0  0  0  0  0  0  0  0  0  0  0
    5.6047  -22.5663    0.0000 C   0  0  0  0  0  0  0  0  0  0  0  0
    4.8547  -21.2673    0.0000 C   0  0  0  0  0  0  0  0  0  0  0  0
    5.6047  -19.9683    0.0000 C   0  0  0  0  0  0  0  0  0  0  0  0
    7.1047  -19.9683    0.0000 C   0  0  0  0  0  0  0  0  0  0  0  0
    7.8547  -18.6692    0.0000 C   0  0  0  0  0  0  0  0  0  0  0  0
    7.1047  -17.3702    0.0000 C   0  0  0  0  0  0  0  0  0  0  0  0
    5.6047  -17.3702    0.0000 C   0  0  0  0  0  0  0  0  0  0  0  0
    4.8547  -18.6692    0.0000 C   0  0  0  0  0  0  0  0  0  0  0  0
    1.1638  -13.7246    0.0000 C   0  0  0  0  0  0  0  0  0  0  0  0
  1  2  1  0
  2  3  1  0
  2  4  1  0
  4  5  2  0
  5  6  1  0
  6  7  2  0
  7  8  1  0
  7  9  1  0
  9 10  1  0
 10 11  1  0
 11 12  1  0
 12 13  1  0
 13 14  2  0
 13 15  1  0
 15 16  1  0
 16 17  2  0
 17 18  1  0
 18 19  2  0
 19 20  1  0
 20 21  2  0
 21 22  1  0
 22 23  2  0
 23 24  1  0
 24 25  2  0
 25 26  1  0
 26 27  2  0
  9 28  2  0
  2 29  1  0
 29 30  2  0
 30 31  1  0
 31 32  2  0
 32 33  1  0
 33 34  1  0
 34 35  1  0
 35 36  1  0
 36 37  2  0
 37 38  1  0
 38 39  2  0
 39 40  1  0
 40 41  1  0
 40 42  1  0
 40 43  1  0
 43 44  2  0
 44 45  1  0
 45 46  2  0
 46 47  1  0
 46 48  1  0
 48 49  1  0
 49 50  1  0
 50 51  1  0
 51 52  1  0
 52 53  2  0
 52 54  1  0
 54 55  1  0
 55 56  2  0
 56 57  1  0
 57 58  2  0
 58 59  1  0
 59 60  2  0
 60 61  1  0
 61 62  2  0
 62 63  1  0
 63 64  2  0
 64 65  1  0
 65 66  2  0
 48 67  2  0
 39 68  1  0
 68 69  2  0
 69 70  1  0
 70 71  1  0
 71 72  1  0
 72 73  1  0
 73 74  2  0
 73 75  1  0
 75 76  1  0
 76 77  2  0
 77 78  1  0
 78 79  2  0
 79 80  1  0
 80 81  2  0
 81 82  1  0
 82 83  2  0
 83 84  1  0
 84 85  2  0
 85 86  1  0
 86 87  2  0
 34 88  1  0
 88 89  1  0
 89 90  2  0
 90 91  1  0
 91 92  2  0
 92 93  1  0
 93 94  1  0
 93 95  1  0
 93 96  1  0
 96 97  2  0
 97 98  1  0
 98 99  2  0
 99100  1  0
 99101  1  0
101102  1  0
102103  1  0
103104  1  0
104105  1  0
105106  2  0
105107  1  0
107108  1  0
108109  2  0
109110  1  0
110111  2  0
111112  1  0
112113  2  0
113114  1  0
114115  2  0
115116  1  0
116117  2  0
117118  1  0
118119  2  0
101120  2  0
 92121  1  0
121122  2  0
122123  1  0
123124  1  0
124125  1  0
125126  1  0
126127  2  0
126128  1  0
128129  1  0
129130  2  0
130131  1  0
131132  2  0
132133  1  0
133134  2  0
134135  1  0
135136  2  0
136137  1  0
137138  2  0
138139  1  0
139140  2  0
 34141  1  0
141142  1  0
142143  2  0
143144  1  0
144145  2  0
145146  1  0
146147  1  0
146148  1  0
146149  1  0
149150  2  0
150151  1  0
151152  1  0
152153  1  0
153154  1  0
154155  1  0
155156  2  0
155157  1  0
157158  1  0
158159  2  0
159160  1  0
160161  2  0
161162  1  0
162163  2  0
163164  1  0
164165  2  0
165166  1  0
166167  2  0
167168  1  0
168169  2  0
151170  2  0
170171  1  0
170172  1  0
172173  2  0
173174  1  0
174175  1  0
175176  1  0
176177  1  0
177178  1  0
145179  1  0
179180  2  0
180181  1  0
181182  1  0
182183  1  0
183184  1  0
184185  2  0
184186  1  0
186187  1  0
187188  2  0
188189  1  0
189190  2  0
190191  1  0
191192  2  0
192193  1  0
193194  2  0
194195  1  0
195196  2  0
196197  1  0
197198  2  0
 32199  1  0
199200  1  0
200201  1  0
201202  1  0
202203  1  0
203204  2  0
203205  1  0
205206  1  0
206207  2  0
207208  1  0
208209  2  0
209210  1  0
210211  2  0
211212  1  0
212213  2  0
213214  1  0
214215  2  0
215216  1  0
216217  2  0
199218  2  0
 28  4  1  0
218 29  1  0
 27 13  1  0
 69 36  1  0
 87 73  1  0
122 89  1  0
140126  1  0
180142  1  0
198184  1  0
217203  1  0
 21 16  1  0
 27 22  1  0
 67 43  1  0
 81 76  1  0
 87 82  1  0
120 96  1  0
134129  1  0
140135  1  0
173149  1  0
178176  1  0
192187  1  0
198193  1  0
211206  1  0
217212  1  0
 66 52  1  0
119105  1  0
169155  1  0
 60 55  1  0
 66 61  1  0
113108  1  0
119114  1  0
163158  1  0
169164  1  0
M  END
>  <Candidate_ID>  (376) 
CAND_R2_376

>  <Candidate_Name>  (376) 
TetraDSi-glycidyloxy

>  <Parent_Seed_ID>  (376) 
TRAIN_103

>  <Parent_Name>  (376) 
TetraDSi

>  <Transformation_Code>  (376) 
glycidyloxy

>  <Design_Family>  (376) 
P-Si

>  <Preparation_Type>  (376) 
Co-curing

>  <Synthesis_Level>  (376) 
C

>  <Parent_Tanimoto_r3>  (376) 
0.7521367521367521

>  <Max_Train_Tanimoto_r3>  (376) 
0.7521367521367521

>  <Risk_Flags>  (376) 
high molecular weight; high DOPO count; exploratory only; excluded from formal screening

$$$$
CAND_R2_377 | TetraDSi-OH-glycidyl-all
     RDKit          2D

229264  0  0  0  0  0  0  0  0999 V2000
    3.2659  -12.1648    0.0000 C   0  0  0  0  0  0  0  0  0  0  0  0
    2.0524  -11.2832    0.0000 C   0  0  0  0  0  0  0  0  0  0  0  0
    1.0882  -10.1341    0.0000 C   0  0  0  0  0  0  0  0  0  0  0  0
    3.2014  -10.3190    0.0000 C   0  0  0  0  0  0  0  0  0  0  0  0
    4.6110  -10.8320    0.0000 C   0  0  0  0  0  0  0  0  0  0  0  0
    5.7600   -9.8678    0.0000 C   0  0  0  0  0  0  0  0  0  0  0  0
    5.4996   -8.3906    0.0000 C   0  0  0  0  0  0  0  0  0  0  0  0
    6.6486   -7.4264    0.0000 O   0  0  0  0  0  0  0  0  0  0  0  0
    8.0582   -7.9395    0.0000 C   0  0  0  0  0  0  0  0  0  0  0  0
    9.2072   -6.9753    0.0000 C   0  0  0  0  0  0  0  0  0  0  0  0
    9.7203   -5.5658    0.0000 C   0  0  0  0  0  0  0  0  0  0  0  0
   10.6844   -6.7148    0.0000 O   0  0  0  0  0  0  0  0  0  0  0  0
    4.0900   -7.8776    0.0000 C   0  0  0  0  0  0  0  0  0  0  0  0
    3.8296   -6.4004    0.0000 C   0  0  0  0  0  0  0  0  0  0  0  0
    2.4200   -5.8874    0.0000 C   0  0  0  0  0  0  0  0  0  0  0  0
    2.1595   -4.4101    0.0000 C   0  0  0  0  0  0  0  0  0  0  0  0
    0.7500   -3.8971    0.0000 P   0  0  0  0  0  0  0  0  0  0  0  0
    0.4895   -5.3743    0.0000 O   0  0  0  0  0  0  0  0  0  0  0  0
    1.5000   -2.5981    0.0000 O   0  0  0  0  0  0  0  0  0  0  0  0
    0.7500   -1.2990    0.0000 C   0  0  0  0  0  0  0  0  0  0  0  0
    1.5000    0.0000    0.0000 C   0  0  0  0  0  0  0  0  0  0  0  0
    0.7500    1.2990    0.0000 C   0  0  0  0  0  0  0  0  0  0  0  0
   -0.7500    1.2990    0.0000 C   0  0  0  0  0  0  0  0  0  0  0  0
   -1.5000    0.0000    0.0000 C   0  0  0  0  0  0  0  0  0  0  0  0
   -0.7500   -1.2990    0.0000 C   0  0  0  0  0  0  0  0  0  0  0  0
   -1.5000   -2.5981    0.0000 C   0  0  0  0  0  0  0  0  0  0  0  0
   -3.0000   -2.5981    0.0000 C   0  0  0  0  0  0  0  0  0  0  0  0
   -3.7500   -3.8971    0.0000 C   0  0  0  0  0  0  0  0  0  0  0  0
   -3.0000   -5.1962    0.0000 C   0  0  0  0  0  0  0  0  0  0  0  0
   -1.5000   -5.1962    0.0000 C   0  0  0  0  0  0  0  0  0  0  0  0
   -0.7500   -3.8971    0.0000 C   0  0  0  0  0  0  0  0  0  0  0  0
    2.9410   -8.8418    0.0000 C   0  0  0  0  0  0  0  0  0  0  0  0
    0.9033  -12.2474    0.0000 C   0  0  0  0  0  0  0  0  0  0  0  0
   -0.5062  -11.7343    0.0000 C   0  0  0  0  0  0  0  0  0  0  0  0
   -1.6553  -12.6985    0.0000 C   0  0  0  0  0  0  0  0  0  0  0  0
   -1.3948  -14.1757    0.0000 C   0  0  0  0  0  0  0  0  0  0  0  0
   -2.5439  -15.1399    0.0000 O   0  0  0  0  0  0  0  0  0  0  0  0
   -3.9534  -14.6269    0.0000 Si  0  0  0  0  0  4  0  0  0  0  0  0
   -5.3630  -14.1138    0.0000 O   0  0  0  0  0  0  0  0  0  0  0  0
   -5.6235  -12.6366    0.0000 C   0  0  0  0  0  0  0  0  0  0  0  0
   -4.4744  -11.6724    0.0000 C   0  0  0  0  0  0  0  0  0  0  0  0
   -4.7349  -10.1952    0.0000 C   0  0  0  0  0  0  0  0  0  0  0  0
   -6.1444   -9.6822    0.0000 C   0  0  0  0  0  0  0  0  0  0  0  0
   -6.4049   -8.2050    0.0000 C   0  0  0  0  0  0  0  0  0  0  0  0
   -7.8821   -8.4655    0.0000 C   0  0  0  0  0  0  0  0  0  0  0  0
   -4.9277   -7.9445    0.0000 C   0  0  0  0  0  0  0  0  0  0  0  0
   -6.6653   -6.7278    0.0000 C   0  0  0  0  0  0  0  0  0  0  0  0
   -5.5163   -5.7636    0.0000 C   0  0  0  0  0  0  0  0  0  0  0  0
   -5.7768   -4.2864    0.0000 C   0  0  0  0  0  0  0  0  0  0  0  0
   -7.1863   -3.7734    0.0000 C   0  0  0  0  0  0  0  0  0  0  0  0
   -7.4468   -2.2961    0.0000 O   0  0  0  0  0  0  0  0  0  0  0  0
   -6.2977   -1.3320    0.0000 C   0  0  0  0  0  0  0  0  0  0  0  0
   -6.5582    0.1452    0.0000 C   0  0  0  0  0  0  0  0  0  0  0  0
   -7.5223    1.2943    0.0000 C   0  0  0  0  0  0  0  0  0  0  0  0
   -6.0451    1.5548    0.0000 O   0  0  0  0  0  0  0  0  0  0  0  0
   -8.3354   -4.7375    0.0000 C   0  0  0  0  0  0  0  0  0  0  0  0
   -9.7449   -4.2245    0.0000 C   0  0  0  0  0  0  0  0  0  0  0  0
  -10.0054   -2.7473    0.0000 C   0  0  0  0  0  0  0  0  0  0  0  0
  -11.4149   -2.2343    0.0000 C   0  0  0  0  0  0  0  0  0  0  0  0
  -11.6754   -0.7571    0.0000 P   0  0  0  0  0  0  0  0  0  0  0  0
  -10.1754   -0.7571    0.0000 O   0  0  0  0  0  0  0  0  0  0  0  0
  -13.0849   -1.2701    0.0000 O   0  0  0  0  0  0  0  0  0  0  0  0
  -14.2340   -0.3059    0.0000 C   0  0  0  0  0  0  0  0  0  0  0  0
  -15.6435   -0.8189    0.0000 C   0  0  0  0  0  0  0  0  0  0  0  0
  -16.7926    0.1452    0.0000 C   0  0  0  0  0  0  0  0  0  0  0  0
  -16.5321    1.6225    0.0000 C   0  0  0  0  0  0  0  0  0  0  0  0
  -15.1226    2.1355    0.0000 C   0  0  0  0  0  0  0  0  0  0  0  0
  -13.9735    1.1713    0.0000 C   0  0  0  0  0  0  0  0  0  0  0  0
  -12.5640    1.6843    0.0000 C   0  0  0  0  0  0  0  0  0  0  0  0
  -12.3035    3.1616    0.0000 C   0  0  0  0  0  0  0  0  0  0  0  0
  -10.8940    3.6746    0.0000 C   0  0  0  0  0  0  0  0  0  0  0  0
   -9.7449    2.7104    0.0000 C   0  0  0  0  0  0  0  0  0  0  0  0
  -10.0054    1.2332    0.0000 C   0  0  0  0  0  0  0  0  0  0  0  0
  -11.4149    0.7202    0.0000 C   0  0  0  0  0  0  0  0  0  0  0  0
   -8.0749   -6.2147    0.0000 C   0  0  0  0  0  0  0  0  0  0  0  0
   -7.2935  -10.6464    0.0000 C   0  0  0  0  0  0  0  0  0  0  0  0
   -7.0330  -12.1236    0.0000 C   0  0  0  0  0  0  0  0  0  0  0  0
   -8.1821  -13.0878    0.0000 C   0  0  0  0  0  0  0  0  0  0  0  0
   -9.5916  -12.5747    0.0000 C   0  0  0  0  0  0  0  0  0  0  0  0
  -10.7407  -13.5389    0.0000 C   0  0  0  0  0  0  0  0  0  0  0  0
  -12.1502  -13.0259    0.0000 P   0  0  0  0  0  0  0  0  0  0  0  0
  -12.4107  -14.5031    0.0000 O   0  0  0  0  0  0  0  0  0  0  0  0
  -11.4002  -11.7269    0.0000 O   0  0  0  0  0  0  0  0  0  0  0  0
  -12.1502  -10.4278    0.0000 C   0  0  0  0  0  0  0  0  0  0  0  0
  -11.4002   -9.1288    0.0000 C   0  0  0  0  0  0  0  0  0  0  0  0
  -12.1502   -7.8297    0.0000 C   0  0  0  0  0  0  0  0  0  0  0  0
  -13.6502   -7.8297    0.0000 C   0  0  0  0  0  0  0  0  0  0  0  0
  -14.4002   -9.1288    0.0000 C   0  0  0  0  0  0  0  0  0  0  0  0
  -13.6502  -10.4278    0.0000 C   0  0  0  0  0  0  0  0  0  0  0  0
  -14.4002  -11.7269    0.0000 C   0  0  0  0  0  0  0  0  0  0  0  0
  -15.9002  -11.7269    0.0000 C   0  0  0  0  0  0  0  0  0  0  0  0
  -16.6502  -13.0259    0.0000 C   0  0  0  0  0  0  0  0  0  0  0  0
  -15.9002  -14.3249    0.0000 C   0  0  0  0  0  0  0  0  0  0  0  0
  -14.4002  -14.3249    0.0000 C   0  0  0  0  0  0  0  0  0  0  0  0
  -13.6502  -13.0259    0.0000 C   0  0  0  0  0  0  0  0  0  0  0  0
   -4.4665  -16.0364    0.0000 O   0  0  0  0  0  0  0  0  0  0  0  0
   -5.9437  -16.2969    0.0000 C   0  0  0  0  0  0  0  0  0  0  0  0
   -6.9079  -15.1478    0.0000 C   0  0  0  0  0  0  0  0  0  0  0  0
   -8.3851  -15.4083    0.0000 C   0  0  0  0  0  0  0  0  0  0  0  0
   -8.8981  -16.8178    0.0000 C   0  0  0  0  0  0  0  0  0  0  0  0
  -10.3753  -17.0783    0.0000 C   0  0  0  0  0  0  0  0  0  0  0  0
  -10.6358  -15.6011    0.0000 C   0  0  0  0  0  0  0  0  0  0  0  0
  -10.1148  -18.5555    0.0000 C   0  0  0  0  0  0  0  0  0  0  0  0
  -11.8525  -17.3388    0.0000 C   0  0  0  0  0  0  0  0  0  0  0  0
  -12.8167  -16.1897    0.0000 C   0  0  0  0  0  0  0  0  0  0  0  0
  -14.2939  -16.4502    0.0000 C   0  0  0  0  0  0  0  0  0  0  0  0
  -14.8070  -17.8597    0.0000 C   0  0  0  0  0  0  0  0  0  0  0  0
  -16.2842  -18.1202    0.0000 O   0  0  0  0  0  0  0  0  0  0  0  0
  -17.2483  -16.9711    0.0000 C   0  0  0  0  0  0  0  0  0  0  0  0
  -18.7256  -17.2316    0.0000 C   0  0  0  0  0  0  0  0  0  0  0  0
  -19.8746  -18.1958    0.0000 C   0  0  0  0  0  0  0  0  0  0  0  0
  -20.1351  -16.7186    0.0000 O   0  0  0  0  0  0  0  0  0  0  0  0
  -13.8428  -19.0088    0.0000 C   0  0  0  0  0  0  0  0  0  0  0  0
  -14.3558  -20.4183    0.0000 C   0  0  0  0  0  0  0  0  0  0  0  0
  -13.3916  -21.5674    0.0000 C   0  0  0  0  0  0  0  0  0  0  0  0
  -13.9047  -22.9769    0.0000 C   0  0  0  0  0  0  0  0  0  0  0  0
  -12.9405  -24.1260    0.0000 P   0  0  0  0  0  0  0  0  0  0  0  0
  -11.9763  -22.9769    0.0000 O   0  0  0  0  0  0  0  0  0  0  0  0
  -14.2395  -24.8760    0.0000 O   0  0  0  0  0  0  0  0  0  0  0  0
  -14.2395  -26.3760    0.0000 C   0  0  0  0  0  0  0  0  0  0  0  0
  -15.5385  -27.1260    0.0000 C   0  0  0  0  0  0  0  0  0  0  0  0
  -15.5385  -28.6260    0.0000 C   0  0  0  0  0  0  0  0  0  0  0  0
  -14.2395  -29.3760    0.0000 C   0  0  0  0  0  0  0  0  0  0  0  0
  -12.9405  -28.6260    0.0000 C   0  0  0  0  0  0  0  0  0  0  0  0
  -12.9405  -27.1260    0.0000 C   0  0  0  0  0  0  0  0  0  0  0  0
  -11.6414  -26.3760    0.0000 C   0  0  0  0  0  0  0  0  0  0  0  0
  -10.3424  -27.1260    0.0000 C   0  0  0  0  0  0  0  0  0  0  0  0
   -9.0434  -26.3760    0.0000 C   0  0  0  0  0  0  0  0  0  0  0  0
   -9.0434  -24.8760    0.0000 C   0  0  0  0  0  0  0  0  0  0  0  0
  -10.3424  -24.1260    0.0000 C   0  0  0  0  0  0  0  0  0  0  0  0
  -11.6414  -24.8760    0.0000 C   0  0  0  0  0  0  0  0  0  0  0  0
  -12.3656  -18.7483    0.0000 C   0  0  0  0  0  0  0  0  0  0  0  0
   -7.9339  -17.9669    0.0000 C   0  0  0  0  0  0  0  0  0  0  0  0
   -6.4567  -17.7064    0.0000 C   0  0  0  0  0  0  0  0  0  0  0  0
   -5.4925  -18.8555    0.0000 C   0  0  0  0  0  0  0  0  0  0  0  0
   -6.0056  -20.2650    0.0000 C   0  0  0  0  0  0  0  0  0  0  0  0
   -5.0414  -21.4141    0.0000 C   0  0  0  0  0  0  0  0  0  0  0  0
   -3.5642  -21.1536    0.0000 P   0  0  0  0  0  0  0  0  0  0  0  0
   -3.5642  -22.6536    0.0000 O   0  0  0  0  0  0  0  0  0  0  0  0
   -4.0772  -19.7441    0.0000 O   0  0  0  0  0  0  0  0  0  0  0  0
   -3.1130  -18.5950    0.0000 C   0  0  0  0  0  0  0  0  0  0  0  0
   -3.6261  -17.1855    0.0000 C   0  0  0  0  0  0  0  0  0  0  0  0
   -2.6619  -16.0364    0.0000 C   0  0  0  0  0  0  0  0  0  0  0  0
   -1.1847  -16.2969    0.0000 C   0  0  0  0  0  0  0  0  0  0  0  0
   -0.6716  -17.7064    0.0000 C   0  0  0  0  0  0  0  0  0  0  0  0
   -1.6358  -18.8555    0.0000 C   0  0  0  0  0  0  0  0  0  0  0  0
   -1.1228  -20.2650    0.0000 C   0  0  0  0  0  0  0  0  0  0  0  0
    0.3544  -20.5255    0.0000 C   0  0  0  0  0  0  0  0  0  0  0  0
    0.8675  -21.9350    0.0000 C   0  0  0  0  0  0  0  0  0  0  0  0
   -0.0967  -23.0841    0.0000 C   0  0  0  0  0  0  0  0  0  0  0  0
   -1.5739  -22.8236    0.0000 C   0  0  0  0  0  0  0  0  0  0  0  0
   -2.0870  -21.4141    0.0000 C   0  0  0  0  0  0  0  0  0  0  0  0
   -3.4404  -13.2173    0.0000 O   0  0  0  0  0  0  0  0  0  0  0  0
   -1.9632  -12.9569    0.0000 C   0  0  0  0  0  0  0  0  0  0  0  0
   -1.4502  -11.5473    0.0000 C   0  0  0  0  0  0  0  0  0  0  0  0
    0.0270  -11.2868    0.0000 C   0  0  0  0  0  0  0  0  0  0  0  0
    0.9912  -12.4359    0.0000 C   0  0  0  0  0  0  0  0  0  0  0  0
    2.4684  -12.1754    0.0000 C   0  0  0  0  0  0  0  0  0  0  0  0
    2.5731  -10.6791    0.0000 C   0  0  0  0  0  0  0  0  0  0  0  0
    2.7289  -13.6527    0.0000 C   0  0  0  0  0  0  0  0  0  0  0  0
    3.9456  -11.9150    0.0000 C   0  0  0  0  0  0  0  0  0  0  0  0
    4.4587  -10.5054    0.0000 C   0  0  0  0  0  0  0  0  0  0  0  0
    5.9359  -10.2450    0.0000 C   0  0  0  0  0  0  0  0  0  0  0  0
    6.9001  -11.3940    0.0000 C   0  0  0  0  0  0  0  0  0  0  0  0
    8.3773  -11.1336    0.0000 O   0  0  0  0  0  0  0  0  0  0  0  0
    9.3415  -12.2826    0.0000 C   0  0  0  0  0  0  0  0  0  0  0  0
   10.8187  -12.0221    0.0000 C   0  0  0  0  0  0  0  0  0  0  0  0
   12.2282  -12.5352    0.0000 C   0  0  0  0  0  0  0  0  0  0  0  0
   11.9677  -11.0580    0.0000 O   0  0  0  0  0  0  0  0  0  0  0  0
    6.3870  -12.8036    0.0000 C   0  0  0  0  0  0  0  0  0  0  0  0
    7.3512  -13.9526    0.0000 C   0  0  0  0  0  0  0  0  0  0  0  0
    6.8382  -15.3622    0.0000 C   0  0  0  0  0  0  0  0  0  0  0  0
    7.8024  -16.5112    0.0000 C   0  0  0  0  0  0  0  0  0  0  0  0
    7.2893  -17.9208    0.0000 P   0  0  0  0  0  0  0  0  0  0  0  0
    6.2104  -16.8787    0.0000 O   0  0  0  0  0  0  0  0  0  0  0  0
    8.7666  -18.1812    0.0000 O   0  0  0  0  0  0  0  0  0  0  0  0
    9.2796  -19.5908    0.0000 C   0  0  0  0  0  0  0  0  0  0  0  0
   10.7568  -19.8513    0.0000 C   0  0  0  0  0  0  0  0  0  0  0  0
   11.2698  -21.2608    0.0000 C   0  0  0  0  0  0  0  0  0  0  0  0
   10.3056  -22.4099    0.0000 C   0  0  0  0  0  0  0  0  0  0  0  0
    8.8284  -22.1494    0.0000 C   0  0  0  0  0  0  0  0  0  0  0  0
    8.3154  -20.7399    0.0000 C   0  0  0  0  0  0  0  0  0  0  0  0
    6.8382  -20.4794    0.0000 C   0  0  0  0  0  0  0  0  0  0  0  0
    5.8740  -21.6284    0.0000 C   0  0  0  0  0  0  0  0  0  0  0  0
    4.3968  -21.3680    0.0000 C   0  0  0  0  0  0  0  0  0  0  0  0
    3.8838  -19.9584    0.0000 C   0  0  0  0  0  0  0  0  0  0  0  0
    4.8479  -18.8094    0.0000 C   0  0  0  0  0  0  0  0  0  0  0  0
    6.3252  -19.0698    0.0000 C   0  0  0  0  0  0  0  0  0  0  0  0
    4.9098  -13.0640    0.0000 C   0  0  0  0  0  0  0  0  0  0  0  0
    0.4782  -13.8455    0.0000 C   0  0  0  0  0  0  0  0  0  0  0  0
   -0.9990  -14.1059    0.0000 C   0  0  0  0  0  0  0  0  0  0  0  0
   -1.5121  -15.5155    0.0000 C   0  0  0  0  0  0  0  0  0  0  0  0
   -0.5479  -16.6645    0.0000 C   0  0  0  0  0  0  0  0  0  0  0  0
   -1.0609  -18.0741    0.0000 C   0  0  0  0  0  0  0  0  0  0  0  0
   -0.0967  -19.2231    0.0000 P   0  0  0  0  0  0  0  0  0  0  0  0
    0.8675  -18.0741    0.0000 O   0  0  0  0  0  0  0  0  0  0  0  0
   -1.3958  -19.9731    0.0000 O   0  0  0  0  0  0  0  0  0  0  0  0
   -1.3958  -21.4731    0.0000 C   0  0  0  0  0  0  0  0  0  0  0  0
   -2.6948  -22.2231    0.0000 C   0  0  0  0  0  0  0  0  0  0  0  0
   -2.6948  -23.7231    0.0000 C   0  0  0  0  0  0  0  0  0  0  0  0
   -1.3958  -24.4731    0.0000 C   0  0  0  0  0  0  0  0  0  0  0  0
   -0.0967  -23.7231    0.0000 C   0  0  0  0  0  0  0  0  0  0  0  0
   -0.0967  -22.2231    0.0000 C   0  0  0  0  0  0  0  0  0  0  0  0
    1.2023  -21.4731    0.0000 C   0  0  0  0  0  0  0  0  0  0  0  0
    2.5014  -22.2231    0.0000 C   0  0  0  0  0  0  0  0  0  0  0  0
    3.8004  -21.4731    0.0000 C   0  0  0  0  0  0  0  0  0  0  0  0
    3.8004  -19.9731    0.0000 C   0  0  0  0  0  0  0  0  0  0  0  0
    2.5014  -19.2231    0.0000 C   0  0  0  0  0  0  0  0  0  0  0  0
    1.2023  -19.9731    0.0000 C   0  0  0  0  0  0  0  0  0  0  0  0
    0.0147  -14.6887    0.0000 C   0  0  0  0  0  0  0  0  0  0  0  0
    0.2752  -16.1660    0.0000 C   0  0  0  0  0  0  0  0  0  0  0  0
    1.6847  -16.6790    0.0000 C   0  0  0  0  0  0  0  0  0  0  0  0
    1.9452  -18.1562    0.0000 C   0  0  0  0  0  0  0  0  0  0  0  0
    3.3547  -18.6692    0.0000 P   0  0  0  0  0  0  0  0  0  0  0  0
    3.6152  -17.1920    0.0000 O   0  0  0  0  0  0  0  0  0  0  0  0
    2.6047  -19.9683    0.0000 O   0  0  0  0  0  0  0  0  0  0  0  0
    3.3547  -21.2673    0.0000 C   0  0  0  0  0  0  0  0  0  0  0  0
    2.6047  -22.5663    0.0000 C   0  0  0  0  0  0  0  0  0  0  0  0
    3.3547  -23.8654    0.0000 C   0  0  0  0  0  0  0  0  0  0  0  0
    4.8547  -23.8654    0.0000 C   0  0  0  0  0  0  0  0  0  0  0  0
    5.6047  -22.5663    0.0000 C   0  0  0  0  0  0  0  0  0  0  0  0
    4.8547  -21.2673    0.0000 C   0  0  0  0  0  0  0  0  0  0  0  0
    5.6047  -19.9683    0.0000 C   0  0  0  0  0  0  0  0  0  0  0  0
    7.1047  -19.9683    0.0000 C   0  0  0  0  0  0  0  0  0  0  0  0
    7.8547  -18.6692    0.0000 C   0  0  0  0  0  0  0  0  0  0  0  0
    7.1047  -17.3702    0.0000 C   0  0  0  0  0  0  0  0  0  0  0  0
    5.6047  -17.3702    0.0000 C   0  0  0  0  0  0  0  0  0  0  0  0
    4.8547  -18.6692    0.0000 C   0  0  0  0  0  0  0  0  0  0  0  0
    1.1638  -13.7246    0.0000 C   0  0  0  0  0  0  0  0  0  0  0  0
  1  2  1  0
  2  3  1  0
  2  4  1  0
  4  5  2  0
  5  6  1  0
  6  7  2  0
  7  8  1  0
  8  9  1  0
  9 10  1  0
 10 11  1  0
 11 12  1  0
  7 13  1  0
 13 14  1  0
 14 15  1  0
 15 16  1  0
 16 17  1  0
 17 18  2  0
 17 19  1  0
 19 20  1  0
 20 21  2  0
 21 22  1  0
 22 23  2  0
 23 24  1  0
 24 25  2  0
 25 26  1  0
 26 27  2  0
 27 28  1  0
 28 29  2  0
 29 30  1  0
 30 31  2  0
 13 32  2  0
  2 33  1  0
 33 34  2  0
 34 35  1  0
 35 36  2  0
 36 37  1  0
 37 38  1  0
 38 39  1  0
 39 40  1  0
 40 41  2  0
 41 42  1  0
 42 43  2  0
 43 44  1  0
 44 45  1  0
 44 46  1  0
 44 47  1  0
 47 48  2  0
 48 49  1  0
 49 50  2  0
 50 51  1  0
 51 52  1  0
 52 53  1  0
 53 54  1  0
 54 55  1  0
 50 56  1  0
 56 57  1  0
 57 58  1  0
 58 59  1  0
 59 60  1  0
 60 61  2  0
 60 62  1  0
 62 63  1  0
 63 64  2  0
 64 65  1  0
 65 66  2  0
 66 67  1  0
 67 68  2  0
 68 69  1  0
 69 70  2  0
 70 71  1  0
 71 72  2  0
 72 73  1  0
 73 74  2  0
 56 75  2  0
 43 76  1  0
 76 77  2  0
 77 78  1  0
 78 79  1  0
 79 80  1  0
 80 81  1  0
 81 82  2  0
 81 83  1  0
 83 84  1  0
 84 85  2  0
 85 86  1  0
 86 87  2  0
 87 88  1  0
 88 89  2  0
 89 90  1  0
 90 91  2  0
 91 92  1  0
 92 93  2  0
 93 94  1  0
 94 95  2  0
 38 96  1  0
 96 97  1  0
 97 98  2  0
 98 99  1  0
 99100  2  0
100101  1  0
101102  1  0
101103  1  0
101104  1  0
104105  2  0
105106  1  0
106107  2  0
107108  1  0
108109  1  0
109110  1  0
110111  1  0
111112  1  0
107113  1  0
113114  1  0
114115  1  0
115116  1  0
116117  1  0
117118  2  0
117119  1  0
119120  1  0
120121  2  0
121122  1  0
122123  2  0
123124  1  0
124125  2  0
125126  1  0
126127  2  0
127128  1  0
128129  2  0
129130  1  0
130131  2  0
113132  2  0
100133  1  0
133134  2  0
134135  1  0
135136  1  0
136137  1  0
137138  1  0
138139  2  0
138140  1  0
140141  1  0
141142  2  0
142143  1  0
143144  2  0
144145  1  0
145146  2  0
146147  1  0
147148  2  0
148149  1  0
149150  2  0
150151  1  0
151152  2  0
 38153  1  0
153154  1  0
154155  2  0
155156  1  0
156157  2  0
157158  1  0
158159  1  0
158160  1  0
158161  1  0
161162  2  0
162163  1  0
163164  2  0
164165  1  0
165166  1  0
166167  1  0
167168  1  0
168169  1  0
164170  1  0
170171  1  0
171172  1  0
172173  1  0
173174  1  0
174175  2  0
174176  1  0
176177  1  0
177178  2  0
178179  1  0
179180  2  0
180181  1  0
181182  2  0
182183  1  0
183184  2  0
184185  1  0
185186  2  0
186187  1  0
187188  2  0
170189  2  0
157190  1  0
190191  2  0
191192  1  0
192193  1  0
193194  1  0
194195  1  0
195196  2  0
195197  1  0
197198  1  0
198199  2  0
199200  1  0
200201  2  0
201202  1  0
202203  2  0
203204  1  0
204205  2  0
205206  1  0
206207  2  0
207208  1  0
208209  2  0
 36210  1  0
210211  1  0
211212  1  0
212213  1  0
213214  1  0
214215  2  0
214216  1  0
216217  1  0
217218  2  0
218219  1  0
219220  2  0
220221  1  0
221222  2  0
222223  1  0
223224  2  0
224225  1  0
225226  2  0
226227  1  0
227228  2  0
210229  2  0
 32  4  1  0
229 33  1  0
 12 10  1  0
 31 17  1  0
 77 40  1  0
 95 81  1  0
134 97  1  0
152138  1  0
191154  1  0
209195  1  0
228214  1  0
 25 20  1  0
 31 26  1  0
 75 47  1  0
 89 84  1  0
 95 90  1  0
132104  1  0
146141  1  0
152147  1  0
189161  1  0
203198  1  0
209204  1  0
222217  1  0
228223  1  0
 55 53  1  0
 74 60  1  0
112110  1  0
131117  1  0
169167  1  0
188174  1  0
 68 63  1  0
 74 69  1  0
125120  1  0
131126  1  0
182177  1  0
188183  1  0
M  END
>  <Candidate_ID>  (377) 
CAND_R2_377

>  <Candidate_Name>  (377) 
TetraDSi-OH-glycidyl-all

>  <Parent_Seed_ID>  (377) 
TRAIN_103

>  <Parent_Name>  (377) 
TetraDSi

>  <Transformation_Code>  (377) 
OH_glycidyl_all

>  <Design_Family>  (377) 
P-Si

>  <Preparation_Type>  (377) 
Co-curing

>  <Synthesis_Level>  (377) 
C

>  <Parent_Tanimoto_r3>  (377) 
0.7238095238095238

>  <Max_Train_Tanimoto_r3>  (377) 
0.7238095238095238

>  <Risk_Flags>  (377) 
high molecular weight; high DOPO count; exploratory only; excluded from formal screening

$$$$
CAND_R2_378 | TetraDSi-OH-methyl
     RDKit          2D

214245  0  0  0  0  0  0  0  0999 V2000
  -12.6311   -4.2853    0.0000 C   0  0  0  0  0  0  0  0  0  0  0  0
  -11.1539   -4.0248    0.0000 O   0  0  0  0  0  0  0  0  0  0  0  0
  -10.1897   -5.1739    0.0000 C   0  0  0  0  0  0  0  0  0  0  0  0
   -8.7125   -4.9134    0.0000 C   0  0  0  0  0  0  0  0  0  0  0  0
   -7.7483   -6.0625    0.0000 C   0  0  0  0  0  0  0  0  0  0  0  0
   -8.2613   -7.4720    0.0000 C   0  0  0  0  0  0  0  0  0  0  0  0
   -7.2971   -8.6211    0.0000 C   0  0  0  0  0  0  0  0  0  0  0  0
   -8.4462   -9.5852    0.0000 C   0  0  0  0  0  0  0  0  0  0  0  0
   -6.4155   -7.4075    0.0000 C   0  0  0  0  0  0  0  0  0  0  0  0
   -6.3330   -9.7701    0.0000 C   0  0  0  0  0  0  0  0  0  0  0  0
   -6.8460  -11.1797    0.0000 C   0  0  0  0  0  0  0  0  0  0  0  0
   -5.8818  -12.3287    0.0000 C   0  0  0  0  0  0  0  0  0  0  0  0
   -4.4046  -12.0683    0.0000 C   0  0  0  0  0  0  0  0  0  0  0  0
   -3.4404  -13.2173    0.0000 O   0  0  0  0  0  0  0  0  0  0  0  0
   -3.9534  -14.6269    0.0000 Si  0  0  0  0  0  4  0  0  0  0  0  0
   -2.5439  -15.1399    0.0000 O   0  0  0  0  0  0  0  0  0  0  0  0
   -1.3948  -14.1757    0.0000 C   0  0  0  0  0  0  0  0  0  0  0  0
   -1.6553  -12.6985    0.0000 C   0  0  0  0  0  0  0  0  0  0  0  0
   -0.5062  -11.7343    0.0000 C   0  0  0  0  0  0  0  0  0  0  0  0
    0.9033  -12.2474    0.0000 C   0  0  0  0  0  0  0  0  0  0  0  0
    2.0524  -11.2832    0.0000 C   0  0  0  0  0  0  0  0  0  0  0  0
    1.0882  -10.1341    0.0000 C   0  0  0  0  0  0  0  0  0  0  0  0
    3.0165  -12.4322    0.0000 C   0  0  0  0  0  0  0  0  0  0  0  0
    3.2014  -10.3190    0.0000 C   0  0  0  0  0  0  0  0  0  0  0  0
    2.9410   -8.8418    0.0000 C   0  0  0  0  0  0  0  0  0  0  0  0
    4.0900   -7.8776    0.0000 C   0  0  0  0  0  0  0  0  0  0  0  0
    5.4996   -8.3906    0.0000 C   0  0  0  0  0  0  0  0  0  0  0  0
    6.6486   -7.4264    0.0000 O   0  0  0  0  0  0  0  0  0  0  0  0
    5.7600   -9.8678    0.0000 C   0  0  0  0  0  0  0  0  0  0  0  0
    7.1696  -10.3809    0.0000 C   0  0  0  0  0  0  0  0  0  0  0  0
    7.4300  -11.8581    0.0000 C   0  0  0  0  0  0  0  0  0  0  0  0
    8.8396  -12.3711    0.0000 C   0  0  0  0  0  0  0  0  0  0  0  0
    9.1001  -13.8483    0.0000 P   0  0  0  0  0  0  0  0  0  0  0  0
    7.6001  -13.8483    0.0000 O   0  0  0  0  0  0  0  0  0  0  0  0
   10.5096  -13.3353    0.0000 O   0  0  0  0  0  0  0  0  0  0  0  0
   11.6587  -14.2995    0.0000 C   0  0  0  0  0  0  0  0  0  0  0  0
   13.0682  -13.7864    0.0000 C   0  0  0  0  0  0  0  0  0  0  0  0
   14.2173  -14.7506    0.0000 C   0  0  0  0  0  0  0  0  0  0  0  0
   13.9568  -16.2278    0.0000 C   0  0  0  0  0  0  0  0  0  0  0  0
   12.5473  -16.7409    0.0000 C   0  0  0  0  0  0  0  0  0  0  0  0
   11.3982  -15.7767    0.0000 C   0  0  0  0  0  0  0  0  0  0  0  0
    9.9887  -16.2897    0.0000 C   0  0  0  0  0  0  0  0  0  0  0  0
    9.7282  -17.7669    0.0000 C   0  0  0  0  0  0  0  0  0  0  0  0
    8.3186  -18.2800    0.0000 C   0  0  0  0  0  0  0  0  0  0  0  0
    7.1696  -17.3158    0.0000 C   0  0  0  0  0  0  0  0  0  0  0  0
    7.4300  -15.8386    0.0000 C   0  0  0  0  0  0  0  0  0  0  0  0
    8.8396  -15.3255    0.0000 C   0  0  0  0  0  0  0  0  0  0  0  0
    4.6110  -10.8320    0.0000 C   0  0  0  0  0  0  0  0  0  0  0  0
    1.1638  -13.7246    0.0000 C   0  0  0  0  0  0  0  0  0  0  0  0
    0.0147  -14.6887    0.0000 C   0  0  0  0  0  0  0  0  0  0  0  0
    0.2752  -16.1660    0.0000 C   0  0  0  0  0  0  0  0  0  0  0  0
   -0.8739  -17.1301    0.0000 C   0  0  0  0  0  0  0  0  0  0  0  0
   -2.2834  -16.6171    0.0000 C   0  0  0  0  0  0  0  0  0  0  0  0
   -2.5439  -15.1399    0.0000 P   0  0  0  0  0  0  0  0  0  0  0  0
   -3.7874  -15.9788    0.0000 O   0  0  0  0  0  0  0  0  0  0  0  0
   -1.0439  -15.1399    0.0000 O   0  0  0  0  0  0  0  0  0  0  0  0
   -0.2939  -13.8409    0.0000 C   0  0  0  0  0  0  0  0  0  0  0  0
    1.2061  -13.8409    0.0000 C   0  0  0  0  0  0  0  0  0  0  0  0
    1.9561  -12.5418    0.0000 C   0  0  0  0  0  0  0  0  0  0  0  0
    1.2061  -11.2428    0.0000 C   0  0  0  0  0  0  0  0  0  0  0  0
   -0.2939  -11.2428    0.0000 C   0  0  0  0  0  0  0  0  0  0  0  0
   -1.0439  -12.5418    0.0000 C   0  0  0  0  0  0  0  0  0  0  0  0
   -2.5439  -12.5418    0.0000 C   0  0  0  0  0  0  0  0  0  0  0  0
   -3.2939  -11.2428    0.0000 C   0  0  0  0  0  0  0  0  0  0  0  0
   -4.7939  -11.2428    0.0000 C   0  0  0  0  0  0  0  0  0  0  0  0
   -5.5439  -12.5418    0.0000 C   0  0  0  0  0  0  0  0  0  0  0  0
   -4.7939  -13.8409    0.0000 C   0  0  0  0  0  0  0  0  0  0  0  0
   -3.2939  -13.8409    0.0000 C   0  0  0  0  0  0  0  0  0  0  0  0
   -5.3630  -14.1138    0.0000 O   0  0  0  0  0  0  0  0  0  0  0  0
   -5.6235  -12.6366    0.0000 C   0  0  0  0  0  0  0  0  0  0  0  0
   -4.4744  -11.6724    0.0000 C   0  0  0  0  0  0  0  0  0  0  0  0
   -4.7349  -10.1952    0.0000 C   0  0  0  0  0  0  0  0  0  0  0  0
   -6.1444   -9.6822    0.0000 C   0  0  0  0  0  0  0  0  0  0  0  0
   -6.4049   -8.2050    0.0000 C   0  0  0  0  0  0  0  0  0  0  0  0
   -7.9012   -8.1003    0.0000 C   0  0  0  0  0  0  0  0  0  0  0  0
   -4.9277   -7.9445    0.0000 C   0  0  0  0  0  0  0  0  0  0  0  0
   -6.6653   -6.7278    0.0000 C   0  0  0  0  0  0  0  0  0  0  0  0
   -5.5163   -5.7636    0.0000 C   0  0  0  0  0  0  0  0  0  0  0  0
   -5.7768   -4.2864    0.0000 C   0  0  0  0  0  0  0  0  0  0  0  0
   -7.1863   -3.7734    0.0000 C   0  0  0  0  0  0  0  0  0  0  0  0
   -7.4468   -2.2961    0.0000 O   0  0  0  0  0  0  0  0  0  0  0  0
   -8.3354   -4.7375    0.0000 C   0  0  0  0  0  0  0  0  0  0  0  0
   -9.7449   -4.2245    0.0000 C   0  0  0  0  0  0  0  0  0  0  0  0
  -10.0054   -2.7473    0.0000 C   0  0  0  0  0  0  0  0  0  0  0  0
  -11.4149   -2.2343    0.0000 C   0  0  0  0  0  0  0  0  0  0  0  0
  -11.6754   -0.7571    0.0000 P   0  0  0  0  0  0  0  0  0  0  0  0
  -10.1754   -0.7571    0.0000 O   0  0  0  0  0  0  0  0  0  0  0  0
  -13.0849   -1.2701    0.0000 O   0  0  0  0  0  0  0  0  0  0  0  0
  -14.2340   -0.3059    0.0000 C   0  0  0  0  0  0  0  0  0  0  0  0
  -15.6435   -0.8189    0.0000 C   0  0  0  0  0  0  0  0  0  0  0  0
  -16.7926    0.1452    0.0000 C   0  0  0  0  0  0  0  0  0  0  0  0
  -16.5321    1.6225    0.0000 C   0  0  0  0  0  0  0  0  0  0  0  0
  -15.1226    2.1355    0.0000 C   0  0  0  0  0  0  0  0  0  0  0  0
  -13.9735    1.1713    0.0000 C   0  0  0  0  0  0  0  0  0  0  0  0
  -12.5640    1.6843    0.0000 C   0  0  0  0  0  0  0  0  0  0  0  0
  -12.3035    3.1616    0.0000 C   0  0  0  0  0  0  0  0  0  0  0  0
  -10.8940    3.6746    0.0000 C   0  0  0  0  0  0  0  0  0  0  0  0
   -9.7449    2.7104    0.0000 C   0  0  0  0  0  0  0  0  0  0  0  0
  -10.0054    1.2332    0.0000 C   0  0  0  0  0  0  0  0  0  0  0  0
  -11.4149    0.7202    0.0000 C   0  0  0  0  0  0  0  0  0  0  0  0
   -8.0749   -6.2147    0.0000 C   0  0  0  0  0  0  0  0  0  0  0  0
   -7.2935  -10.6464    0.0000 C   0  0  0  0  0  0  0  0  0  0  0  0
   -7.0330  -12.1236    0.0000 C   0  0  0  0  0  0  0  0  0  0  0  0
   -8.1821  -13.0878    0.0000 C   0  0  0  0  0  0  0  0  0  0  0  0
   -9.5916  -12.5747    0.0000 C   0  0  0  0  0  0  0  0  0  0  0  0
  -10.7407  -13.5389    0.0000 C   0  0  0  0  0  0  0  0  0  0  0  0
  -12.1502  -13.0259    0.0000 P   0  0  0  0  0  0  0  0  0  0  0  0
  -11.4002  -11.7269    0.0000 O   0  0  0  0  0  0  0  0  0  0  0  0
  -12.4107  -14.5031    0.0000 O   0  0  0  0  0  0  0  0  0  0  0  0
  -13.8202  -15.0161    0.0000 C   0  0  0  0  0  0  0  0  0  0  0  0
  -14.0807  -16.4934    0.0000 C   0  0  0  0  0  0  0  0  0  0  0  0
  -15.4902  -17.0064    0.0000 C   0  0  0  0  0  0  0  0  0  0  0  0
  -16.6393  -16.0422    0.0000 C   0  0  0  0  0  0  0  0  0  0  0  0
  -16.3788  -14.5650    0.0000 C   0  0  0  0  0  0  0  0  0  0  0  0
  -14.9693  -14.0520    0.0000 C   0  0  0  0  0  0  0  0  0  0  0  0
  -14.7088  -12.5747    0.0000 C   0  0  0  0  0  0  0  0  0  0  0  0
  -15.8579  -11.6106    0.0000 C   0  0  0  0  0  0  0  0  0  0  0  0
  -15.5974  -10.1334    0.0000 C   0  0  0  0  0  0  0  0  0  0  0  0
  -14.1879   -9.6203    0.0000 C   0  0  0  0  0  0  0  0  0  0  0  0
  -13.0388  -10.5845    0.0000 C   0  0  0  0  0  0  0  0  0  0  0  0
  -13.2993  -12.0617    0.0000 C   0  0  0  0  0  0  0  0  0  0  0  0
   -4.4665  -16.0364    0.0000 O   0  0  0  0  0  0  0  0  0  0  0  0
   -5.9437  -16.2969    0.0000 C   0  0  0  0  0  0  0  0  0  0  0  0
   -6.9079  -15.1478    0.0000 C   0  0  0  0  0  0  0  0  0  0  0  0
   -8.3851  -15.4083    0.0000 C   0  0  0  0  0  0  0  0  0  0  0  0
   -8.8981  -16.8178    0.0000 C   0  0  0  0  0  0  0  0  0  0  0  0
  -10.3753  -17.0783    0.0000 C   0  0  0  0  0  0  0  0  0  0  0  0
  -10.6358  -15.6011    0.0000 C   0  0  0  0  0  0  0  0  0  0  0  0
  -10.1148  -18.5555    0.0000 C   0  0  0  0  0  0  0  0  0  0  0  0
  -11.8525  -17.3388    0.0000 C   0  0  0  0  0  0  0  0  0  0  0  0
  -12.8167  -16.1897    0.0000 C   0  0  0  0  0  0  0  0  0  0  0  0
  -14.2939  -16.4502    0.0000 C   0  0  0  0  0  0  0  0  0  0  0  0
  -14.8070  -17.8597    0.0000 C   0  0  0  0  0  0  0  0  0  0  0  0
  -16.2842  -18.1202    0.0000 O   0  0  0  0  0  0  0  0  0  0  0  0
  -13.8428  -19.0088    0.0000 C   0  0  0  0  0  0  0  0  0  0  0  0
  -14.3558  -20.4183    0.0000 C   0  0  0  0  0  0  0  0  0  0  0  0
  -13.3916  -21.5674    0.0000 C   0  0  0  0  0  0  0  0  0  0  0  0
  -13.9047  -22.9769    0.0000 C   0  0  0  0  0  0  0  0  0  0  0  0
  -12.9405  -24.1260    0.0000 P   0  0  0  0  0  0  0  0  0  0  0  0
  -11.9763  -22.9769    0.0000 O   0  0  0  0  0  0  0  0  0  0  0  0
  -14.2395  -24.8760    0.0000 O   0  0  0  0  0  0  0  0  0  0  0  0
  -14.2395  -26.3760    0.0000 C   0  0  0  0  0  0  0  0  0  0  0  0
  -15.5385  -27.1260    0.0000 C   0  0  0  0  0  0  0  0  0  0  0  0
  -15.5385  -28.6260    0.0000 C   0  0  0  0  0  0  0  0  0  0  0  0
  -14.2395  -29.3760    0.0000 C   0  0  0  0  0  0  0  0  0  0  0  0
  -12.9405  -28.6260    0.0000 C   0  0  0  0  0  0  0  0  0  0  0  0
  -12.9405  -27.1260    0.0000 C   0  0  0  0  0  0  0  0  0  0  0  0
  -11.6414  -26.3760    0.0000 C   0  0  0  0  0  0  0  0  0  0  0  0
  -10.3424  -27.1260    0.0000 C   0  0  0  0  0  0  0  0  0  0  0  0
   -9.0434  -26.3760    0.0000 C   0  0  0  0  0  0  0  0  0  0  0  0
   -9.0434  -24.8760    0.0000 C   0  0  0  0  0  0  0  0  0  0  0  0
  -10.3424  -24.1260    0.0000 C   0  0  0  0  0  0  0  0  0  0  0  0
  -11.6414  -24.8760    0.0000 C   0  0  0  0  0  0  0  0  0  0  0  0
  -12.3656  -18.7483    0.0000 C   0  0  0  0  0  0  0  0  0  0  0  0
   -7.9339  -17.9669    0.0000 C   0  0  0  0  0  0  0  0  0  0  0  0
   -6.4567  -17.7064    0.0000 C   0  0  0  0  0  0  0  0  0  0  0  0
   -5.4925  -18.8555    0.0000 C   0  0  0  0  0  0  0  0  0  0  0  0
   -6.0056  -20.2650    0.0000 C   0  0  0  0  0  0  0  0  0  0  0  0
   -5.0414  -21.4141    0.0000 C   0  0  0  0  0  0  0  0  0  0  0  0
   -5.5544  -22.8236    0.0000 P   0  0  0  0  0  0  0  0  0  0  0  0
   -6.8535  -22.0736    0.0000 O   0  0  0  0  0  0  0  0  0  0  0  0
   -4.0772  -23.0841    0.0000 O   0  0  0  0  0  0  0  0  0  0  0  0
   -3.5642  -24.4936    0.0000 C   0  0  0  0  0  0  0  0  0  0  0  0
   -2.0870  -24.7541    0.0000 C   0  0  0  0  0  0  0  0  0  0  0  0
   -1.5739  -26.1637    0.0000 C   0  0  0  0  0  0  0  0  0  0  0  0
   -2.5381  -27.3127    0.0000 C   0  0  0  0  0  0  0  0  0  0  0  0
   -4.0153  -27.0522    0.0000 C   0  0  0  0  0  0  0  0  0  0  0  0
   -4.5284  -25.6427    0.0000 C   0  0  0  0  0  0  0  0  0  0  0  0
   -6.0056  -25.3822    0.0000 C   0  0  0  0  0  0  0  0  0  0  0  0
   -6.9697  -26.5313    0.0000 C   0  0  0  0  0  0  0  0  0  0  0  0
   -8.4470  -26.2708    0.0000 C   0  0  0  0  0  0  0  0  0  0  0  0
   -8.9600  -24.8613    0.0000 C   0  0  0  0  0  0  0  0  0  0  0  0
   -7.9958  -23.7122    0.0000 C   0  0  0  0  0  0  0  0  0  0  0  0
   -6.5186  -23.9727    0.0000 C   0  0  0  0  0  0  0  0  0  0  0  0
   -3.8916  -10.6587    0.0000 C   0  0  0  0  0  0  0  0  0  0  0  0
   -2.4144  -10.3983    0.0000 C   0  0  0  0  0  0  0  0  0  0  0  0
   -1.9013   -8.9887    0.0000 C   0  0  0  0  0  0  0  0  0  0  0  0
   -0.4241   -8.7282    0.0000 C   0  0  0  0  0  0  0  0  0  0  0  0
    0.0889   -7.3187    0.0000 P   0  0  0  0  0  0  0  0  0  0  0  0
   -1.3883   -7.0582    0.0000 O   0  0  0  0  0  0  0  0  0  0  0  0
    1.3880   -8.0687    0.0000 O   0  0  0  0  0  0  0  0  0  0  0  0
    2.6870   -7.3187    0.0000 C   0  0  0  0  0  0  0  0  0  0  0  0
    3.9860   -8.0687    0.0000 C   0  0  0  0  0  0  0  0  0  0  0  0
    5.2851   -7.3187    0.0000 C   0  0  0  0  0  0  0  0  0  0  0  0
    5.2851   -5.8187    0.0000 C   0  0  0  0  0  0  0  0  0  0  0  0
    3.9860   -5.0687    0.0000 C   0  0  0  0  0  0  0  0  0  0  0  0
    2.6870   -5.8187    0.0000 C   0  0  0  0  0  0  0  0  0  0  0  0
    1.3880   -5.0687    0.0000 C   0  0  0  0  0  0  0  0  0  0  0  0
    1.3880   -3.5687    0.0000 C   0  0  0  0  0  0  0  0  0  0  0  0
    0.0889   -2.8187    0.0000 C   0  0  0  0  0  0  0  0  0  0  0  0
   -1.2101   -3.5687    0.0000 C   0  0  0  0  0  0  0  0  0  0  0  0
   -1.2101   -5.0687    0.0000 C   0  0  0  0  0  0  0  0  0  0  0  0
    0.0889   -5.8187    0.0000 C   0  0  0  0  0  0  0  0  0  0  0  0
   -4.8557   -9.5097    0.0000 C   0  0  0  0  0  0  0  0  0  0  0  0
   -9.7385   -7.7325    0.0000 C   0  0  0  0  0  0  0  0  0  0  0  0
  -10.7027   -6.5834    0.0000 C   0  0  0  0  0  0  0  0  0  0  0  0
  -12.1799   -6.8439    0.0000 C   0  0  0  0  0  0  0  0  0  0  0  0
  -13.1441   -5.6948    0.0000 C   0  0  0  0  0  0  0  0  0  0  0  0
  -14.6213   -5.9553    0.0000 C   0  0  0  0  0  0  0  0  0  0  0  0
  -15.5855   -4.8062    0.0000 P   0  0  0  0  0  0  0  0  0  0  0  0
  -16.5497   -5.9553    0.0000 O   0  0  0  0  0  0  0  0  0  0  0  0
  -14.2865   -4.0562    0.0000 O   0  0  0  0  0  0  0  0  0  0  0  0
  -14.2865   -2.5562    0.0000 C   0  0  0  0  0  0  0  0  0  0  0  0
  -12.9874   -1.8062    0.0000 C   0  0  0  0  0  0  0  0  0  0  0  0
  -12.9874   -0.3062    0.0000 C   0  0  0  0  0  0  0  0  0  0  0  0
  -14.2865    0.4438    0.0000 C   0  0  0  0  0  0  0  0  0  0  0  0
  -15.5855   -0.3062    0.0000 C   0  0  0  0  0  0  0  0  0  0  0  0
  -15.5855   -1.8062    0.0000 C   0  0  0  0  0  0  0  0  0  0  0  0
  -16.8845   -2.5562    0.0000 C   0  0  0  0  0  0  0  0  0  0  0  0
  -18.1836   -1.8062    0.0000 C   0  0  0  0  0  0  0  0  0  0  0  0
  -19.4826   -2.5562    0.0000 C   0  0  0  0  0  0  0  0  0  0  0  0
  -19.4826   -4.0562    0.0000 C   0  0  0  0  0  0  0  0  0  0  0  0
  -18.1836   -4.8062    0.0000 C   0  0  0  0  0  0  0  0  0  0  0  0
  -16.8845   -4.0562    0.0000 C   0  0  0  0  0  0  0  0  0  0  0  0
  1  2  1  0
  2  3  1  0
  3  4  2  0
  4  5  1  0
  5  6  2  0
  6  7  1  0
  7  8  1  0
  7  9  1  0
  7 10  1  0
 10 11  2  0
 11 12  1  0
 12 13  2  0
 13 14  1  0
 14 15  1  0
 15 16  1  0
 16 17  1  0
 17 18  2  0
 18 19  1  0
 19 20  2  0
 20 21  1  0
 21 22  1  0
 21 23  1  0
 21 24  1  0
 24 25  2  0
 25 26  1  0
 26 27  2  0
 27 28  1  0
 27 29  1  0
 29 30  1  0
 30 31  1  0
 31 32  1  0
 32 33  1  0
 33 34  2  0
 33 35  1  0
 35 36  1  0
 36 37  2  0
 37 38  1  0
 38 39  2  0
 39 40  1  0
 40 41  2  0
 41 42  1  0
 42 43  2  0
 43 44  1  0
 44 45  2  0
 45 46  1  0
 46 47  2  0
 29 48  2  0
 20 49  1  0
 49 50  2  0
 50 51  1  0
 51 52  1  0
 52 53  1  0
 53 54  1  0
 54 55  2  0
 54 56  1  0
 56 57  1  0
 57 58  2  0
 58 59  1  0
 59 60  2  0
 60 61  1  0
 61 62  2  0
 62 63  1  0
 63 64  2  0
 64 65  1  0
 65 66  2  0
 66 67  1  0
 67 68  2  0
 15 69  1  0
 69 70  1  0
 70 71  2  0
 71 72  1  0
 72 73  2  0
 73 74  1  0
 74 75  1  0
 74 76  1  0
 74 77  1  0
 77 78  2  0
 78 79  1  0
 79 80  2  0
 80 81  1  0
 80 82  1  0
 82 83  1  0
 83 84  1  0
 84 85  1  0
 85 86  1  0
 86 87  2  0
 86 88  1  0
 88 89  1  0
 89 90  2  0
 90 91  1  0
 91 92  2  0
 92 93  1  0
 93 94  2  0
 94 95  1  0
 95 96  2  0
 96 97  1  0
 97 98  2  0
 98 99  1  0
 99100  2  0
 82101  2  0
 73102  1  0
102103  2  0
103104  1  0
104105  1  0
105106  1  0
106107  1  0
107108  2  0
107109  1  0
109110  1  0
110111  2  0
111112  1  0
112113  2  0
113114  1  0
114115  2  0
115116  1  0
116117  2  0
117118  1  0
118119  2  0
119120  1  0
120121  2  0
 15122  1  0
122123  1  0
123124  2  0
124125  1  0
125126  2  0
126127  1  0
127128  1  0
127129  1  0
127130  1  0
130131  2  0
131132  1  0
132133  2  0
133134  1  0
133135  1  0
135136  1  0
136137  1  0
137138  1  0
138139  1  0
139140  2  0
139141  1  0
141142  1  0
142143  2  0
143144  1  0
144145  2  0
145146  1  0
146147  2  0
147148  1  0
148149  2  0
149150  1  0
150151  2  0
151152  1  0
152153  2  0
135154  2  0
126155  1  0
155156  2  0
156157  1  0
157158  1  0
158159  1  0
159160  1  0
160161  2  0
160162  1  0
162163  1  0
163164  2  0
164165  1  0
165166  2  0
166167  1  0
167168  2  0
168169  1  0
169170  2  0
170171  1  0
171172  2  0
172173  1  0
173174  2  0
 13175  1  0
175176  1  0
176177  1  0
177178  1  0
178179  1  0
179180  2  0
179181  1  0
181182  1  0
182183  2  0
183184  1  0
184185  2  0
185186  1  0
186187  2  0
187188  1  0
188189  2  0
189190  1  0
190191  2  0
191192  1  0
192193  2  0
175194  2  0
  6195  1  0
195196  2  0
196197  1  0
197198  1  0
198199  1  0
199200  1  0
200201  2  0
200202  1  0
202203  1  0
203204  2  0
204205  1  0
205206  2  0
206207  1  0
207208  2  0
208209  1  0
209210  2  0
210211  1  0
211212  2  0
212213  1  0
213214  2  0
196  3  1  0
214200  1  0
194 10  1  0
208203  1  0
214209  1  0
 50 17  1  0
 68 54  1  0
103 70  1  0
121107  1  0
156123  1  0
174160  1  0
193179  1  0
 48 24  1  0
 62 57  1  0
 68 63  1  0
101 77  1  0
115110  1  0
121116  1  0
154130  1  0
168163  1  0
174169  1  0
187182  1  0
193188  1  0
 47 33  1  0
100 86  1  0
153139  1  0
 41 36  1  0
 47 42  1  0
 94 89  1  0
100 95  1  0
147142  1  0
153148  1  0
M  END
>  <Candidate_ID>  (378) 
CAND_R2_378

>  <Candidate_Name>  (378) 
TetraDSi-OH-methyl

>  <Parent_Seed_ID>  (378) 
TRAIN_103

>  <Parent_Name>  (378) 
TetraDSi

>  <Transformation_Code>  (378) 
OH_methyl

>  <Design_Family>  (378) 
P-Si

>  <Preparation_Type>  (378) 
Additive

>  <Synthesis_Level>  (378) 
C

>  <Parent_Tanimoto_r3>  (378) 
0.946236559139785

>  <Max_Train_Tanimoto_r3>  (378) 
0.946236559139785

>  <Risk_Flags>  (378) 
high molecular weight; high DOPO count; exploratory only; excluded from formal screening

$$$$
CAND_R2_379 | TetraDSi-OH-methyl-all
     RDKit          2D

217248  0  0  0  0  0  0  0  0999 V2000
   -8.8563   -1.7831    0.0000 C   0  0  0  0  0  0  0  0  0  0  0  0
   -7.4468   -2.2961    0.0000 O   0  0  0  0  0  0  0  0  0  0  0  0
   -7.1863   -3.7734    0.0000 C   0  0  0  0  0  0  0  0  0  0  0  0
   -8.3354   -4.7375    0.0000 C   0  0  0  0  0  0  0  0  0  0  0  0
   -8.0749   -6.2147    0.0000 C   0  0  0  0  0  0  0  0  0  0  0  0
   -6.6653   -6.7278    0.0000 C   0  0  0  0  0  0  0  0  0  0  0  0
   -6.4049   -8.2050    0.0000 C   0  0  0  0  0  0  0  0  0  0  0  0
   -4.9277   -7.9445    0.0000 C   0  0  0  0  0  0  0  0  0  0  0  0
   -7.9012   -8.1003    0.0000 C   0  0  0  0  0  0  0  0  0  0  0  0
   -6.1444   -9.6822    0.0000 C   0  0  0  0  0  0  0  0  0  0  0  0
   -4.7349  -10.1952    0.0000 C   0  0  0  0  0  0  0  0  0  0  0  0
   -4.4744  -11.6724    0.0000 C   0  0  0  0  0  0  0  0  0  0  0  0
   -5.6235  -12.6366    0.0000 C   0  0  0  0  0  0  0  0  0  0  0  0
   -5.3630  -14.1138    0.0000 O   0  0  0  0  0  0  0  0  0  0  0  0
   -3.9534  -14.6269    0.0000 Si  0  0  0  0  0  4  0  0  0  0  0  0
   -2.5439  -15.1399    0.0000 O   0  0  0  0  0  0  0  0  0  0  0  0
   -1.3948  -14.1757    0.0000 C   0  0  0  0  0  0  0  0  0  0  0  0
   -1.6553  -12.6985    0.0000 C   0  0  0  0  0  0  0  0  0  0  0  0
   -0.5062  -11.7343    0.0000 C   0  0  0  0  0  0  0  0  0  0  0  0
    0.9033  -12.2474    0.0000 C   0  0  0  0  0  0  0  0  0  0  0  0
    2.0524  -11.2832    0.0000 C   0  0  0  0  0  0  0  0  0  0  0  0
    1.0882  -10.1341    0.0000 C   0  0  0  0  0  0  0  0  0  0  0  0
    3.0165  -12.4322    0.0000 C   0  0  0  0  0  0  0  0  0  0  0  0
    3.2014  -10.3190    0.0000 C   0  0  0  0  0  0  0  0  0  0  0  0
    2.9410   -8.8418    0.0000 C   0  0  0  0  0  0  0  0  0  0  0  0
    4.0900   -7.8776    0.0000 C   0  0  0  0  0  0  0  0  0  0  0  0
    5.4996   -8.3906    0.0000 C   0  0  0  0  0  0  0  0  0  0  0  0
    6.6486   -7.4264    0.0000 O   0  0  0  0  0  0  0  0  0  0  0  0
    6.3882   -5.9492    0.0000 C   0  0  0  0  0  0  0  0  0  0  0  0
    5.7600   -9.8678    0.0000 C   0  0  0  0  0  0  0  0  0  0  0  0
    7.1696  -10.3809    0.0000 C   0  0  0  0  0  0  0  0  0  0  0  0
    7.4300  -11.8581    0.0000 C   0  0  0  0  0  0  0  0  0  0  0  0
    8.8396  -12.3711    0.0000 C   0  0  0  0  0  0  0  0  0  0  0  0
    9.1001  -13.8483    0.0000 P   0  0  0  0  0  0  0  0  0  0  0  0
    7.6001  -13.8483    0.0000 O   0  0  0  0  0  0  0  0  0  0  0  0
   10.5096  -13.3353    0.0000 O   0  0  0  0  0  0  0  0  0  0  0  0
   11.6587  -14.2995    0.0000 C   0  0  0  0  0  0  0  0  0  0  0  0
   13.0682  -13.7864    0.0000 C   0  0  0  0  0  0  0  0  0  0  0  0
   14.2173  -14.7506    0.0000 C   0  0  0  0  0  0  0  0  0  0  0  0
   13.9568  -16.2278    0.0000 C   0  0  0  0  0  0  0  0  0  0  0  0
   12.5473  -16.7409    0.0000 C   0  0  0  0  0  0  0  0  0  0  0  0
   11.3982  -15.7767    0.0000 C   0  0  0  0  0  0  0  0  0  0  0  0
    9.9887  -16.2897    0.0000 C   0  0  0  0  0  0  0  0  0  0  0  0
    9.7282  -17.7669    0.0000 C   0  0  0  0  0  0  0  0  0  0  0  0
    8.3186  -18.2800    0.0000 C   0  0  0  0  0  0  0  0  0  0  0  0
    7.1696  -17.3158    0.0000 C   0  0  0  0  0  0  0  0  0  0  0  0
    7.4300  -15.8386    0.0000 C   0  0  0  0  0  0  0  0  0  0  0  0
    8.8396  -15.3255    0.0000 C   0  0  0  0  0  0  0  0  0  0  0  0
    4.6110  -10.8320    0.0000 C   0  0  0  0  0  0  0  0  0  0  0  0
    1.1638  -13.7246    0.0000 C   0  0  0  0  0  0  0  0  0  0  0  0
    0.0147  -14.6887    0.0000 C   0  0  0  0  0  0  0  0  0  0  0  0
    0.2752  -16.1660    0.0000 C   0  0  0  0  0  0  0  0  0  0  0  0
    1.6847  -16.6790    0.0000 C   0  0  0  0  0  0  0  0  0  0  0  0
    1.9452  -18.1562    0.0000 C   0  0  0  0  0  0  0  0  0  0  0  0
    0.7961  -19.1204    0.0000 P   0  0  0  0  0  0  0  0  0  0  0  0
    0.0461  -17.8213    0.0000 O   0  0  0  0  0  0  0  0  0  0  0  0
    1.9452  -20.0846    0.0000 O   0  0  0  0  0  0  0  0  0  0  0  0
    1.6847  -21.5618    0.0000 C   0  0  0  0  0  0  0  0  0  0  0  0
    2.8338  -22.5260    0.0000 C   0  0  0  0  0  0  0  0  0  0  0  0
    2.5733  -24.0032    0.0000 C   0  0  0  0  0  0  0  0  0  0  0  0
    1.1638  -24.5162    0.0000 C   0  0  0  0  0  0  0  0  0  0  0  0
    0.0147  -23.5520    0.0000 C   0  0  0  0  0  0  0  0  0  0  0  0
    0.2752  -22.0748    0.0000 C   0  0  0  0  0  0  0  0  0  0  0  0
   -0.8739  -21.1106    0.0000 C   0  0  0  0  0  0  0  0  0  0  0  0
   -2.2834  -21.6237    0.0000 C   0  0  0  0  0  0  0  0  0  0  0  0
   -3.4325  -20.6595    0.0000 C   0  0  0  0  0  0  0  0  0  0  0  0
   -3.1720  -19.1823    0.0000 C   0  0  0  0  0  0  0  0  0  0  0  0
   -1.7625  -18.6692    0.0000 C   0  0  0  0  0  0  0  0  0  0  0  0
   -0.6134  -19.6334    0.0000 C   0  0  0  0  0  0  0  0  0  0  0  0
   -3.4404  -13.2173    0.0000 O   0  0  0  0  0  0  0  0  0  0  0  0
   -4.4046  -12.0683    0.0000 C   0  0  0  0  0  0  0  0  0  0  0  0
   -3.8916  -10.6587    0.0000 C   0  0  0  0  0  0  0  0  0  0  0  0
   -4.8557   -9.5097    0.0000 C   0  0  0  0  0  0  0  0  0  0  0  0
   -6.3330   -9.7701    0.0000 C   0  0  0  0  0  0  0  0  0  0  0  0
   -7.2971   -8.6211    0.0000 C   0  0  0  0  0  0  0  0  0  0  0  0
   -8.4462   -9.5852    0.0000 C   0  0  0  0  0  0  0  0  0  0  0  0
   -6.4155   -7.4075    0.0000 C   0  0  0  0  0  0  0  0  0  0  0  0
   -8.2613   -7.4720    0.0000 C   0  0  0  0  0  0  0  0  0  0  0  0
   -7.7483   -6.0625    0.0000 C   0  0  0  0  0  0  0  0  0  0  0  0
   -8.7125   -4.9134    0.0000 C   0  0  0  0  0  0  0  0  0  0  0  0
  -10.1897   -5.1739    0.0000 C   0  0  0  0  0  0  0  0  0  0  0  0
  -11.1539   -4.0248    0.0000 O   0  0  0  0  0  0  0  0  0  0  0  0
  -12.6311   -4.2853    0.0000 C   0  0  0  0  0  0  0  0  0  0  0  0
  -10.7027   -6.5834    0.0000 C   0  0  0  0  0  0  0  0  0  0  0  0
  -12.1799   -6.8439    0.0000 C   0  0  0  0  0  0  0  0  0  0  0  0
  -13.1441   -5.6948    0.0000 C   0  0  0  0  0  0  0  0  0  0  0  0
  -14.6213   -5.9553    0.0000 C   0  0  0  0  0  0  0  0  0  0  0  0
  -15.5855   -4.8062    0.0000 P   0  0  0  0  0  0  0  0  0  0  0  0
  -16.5497   -5.9553    0.0000 O   0  0  0  0  0  0  0  0  0  0  0  0
  -14.2865   -4.0562    0.0000 O   0  0  0  0  0  0  0  0  0  0  0  0
  -14.2865   -2.5562    0.0000 C   0  0  0  0  0  0  0  0  0  0  0  0
  -12.9874   -1.8062    0.0000 C   0  0  0  0  0  0  0  0  0  0  0  0
  -12.9874   -0.3062    0.0000 C   0  0  0  0  0  0  0  0  0  0  0  0
  -14.2865    0.4438    0.0000 C   0  0  0  0  0  0  0  0  0  0  0  0
  -15.5855   -0.3062    0.0000 C   0  0  0  0  0  0  0  0  0  0  0  0
  -15.5855   -1.8062    0.0000 C   0  0  0  0  0  0  0  0  0  0  0  0
  -16.8845   -2.5562    0.0000 C   0  0  0  0  0  0  0  0  0  0  0  0
  -18.1836   -1.8062    0.0000 C   0  0  0  0  0  0  0  0  0  0  0  0
  -19.4826   -2.5562    0.0000 C   0  0  0  0  0  0  0  0  0  0  0  0
  -19.4826   -4.0562    0.0000 C   0  0  0  0  0  0  0  0  0  0  0  0
  -18.1836   -4.8062    0.0000 C   0  0  0  0  0  0  0  0  0  0  0  0
  -16.8845   -4.0562    0.0000 C   0  0  0  0  0  0  0  0  0  0  0  0
   -9.7385   -7.7325    0.0000 C   0  0  0  0  0  0  0  0  0  0  0  0
   -6.8460  -11.1797    0.0000 C   0  0  0  0  0  0  0  0  0  0  0  0
   -5.8818  -12.3287    0.0000 C   0  0  0  0  0  0  0  0  0  0  0  0
   -6.3948  -13.7383    0.0000 C   0  0  0  0  0  0  0  0  0  0  0  0
   -7.8720  -13.9987    0.0000 C   0  0  0  0  0  0  0  0  0  0  0  0
   -8.3851  -15.4083    0.0000 C   0  0  0  0  0  0  0  0  0  0  0  0
   -9.8623  -15.6688    0.0000 P   0  0  0  0  0  0  0  0  0  0  0  0
   -9.8623  -14.1688    0.0000 O   0  0  0  0  0  0  0  0  0  0  0  0
   -9.3493  -17.0783    0.0000 O   0  0  0  0  0  0  0  0  0  0  0  0
  -10.3134  -18.2274    0.0000 C   0  0  0  0  0  0  0  0  0  0  0  0
   -9.8004  -19.6369    0.0000 C   0  0  0  0  0  0  0  0  0  0  0  0
  -10.7646  -20.7860    0.0000 C   0  0  0  0  0  0  0  0  0  0  0  0
  -12.2418  -20.5255    0.0000 C   0  0  0  0  0  0  0  0  0  0  0  0
  -12.7548  -19.1160    0.0000 C   0  0  0  0  0  0  0  0  0  0  0  0
  -11.7907  -17.9669    0.0000 C   0  0  0  0  0  0  0  0  0  0  0  0
  -12.3037  -16.5574    0.0000 C   0  0  0  0  0  0  0  0  0  0  0  0
  -13.7809  -16.2969    0.0000 C   0  0  0  0  0  0  0  0  0  0  0  0
  -14.2939  -14.8873    0.0000 C   0  0  0  0  0  0  0  0  0  0  0  0
  -13.3297  -13.7383    0.0000 C   0  0  0  0  0  0  0  0  0  0  0  0
  -11.8525  -13.9987    0.0000 C   0  0  0  0  0  0  0  0  0  0  0  0
  -11.3395  -15.4083    0.0000 C   0  0  0  0  0  0  0  0  0  0  0  0
   -4.4665  -16.0364    0.0000 O   0  0  0  0  0  0  0  0  0  0  0  0
   -5.9437  -16.2969    0.0000 C   0  0  0  0  0  0  0  0  0  0  0  0
   -6.9079  -15.1478    0.0000 C   0  0  0  0  0  0  0  0  0  0  0  0
   -8.3851  -15.4083    0.0000 C   0  0  0  0  0  0  0  0  0  0  0  0
   -8.8981  -16.8178    0.0000 C   0  0  0  0  0  0  0  0  0  0  0  0
  -10.3753  -17.0783    0.0000 C   0  0  0  0  0  0  0  0  0  0  0  0
  -10.9855  -15.7080    0.0000 C   0  0  0  0  0  0  0  0  0  0  0  0
  -10.4800  -18.5746    0.0000 C   0  0  0  0  0  0  0  0  0  0  0  0
  -11.8525  -17.3388    0.0000 C   0  0  0  0  0  0  0  0  0  0  0  0
  -12.8167  -16.1897    0.0000 C   0  0  0  0  0  0  0  0  0  0  0  0
  -14.2939  -16.4502    0.0000 C   0  0  0  0  0  0  0  0  0  0  0  0
  -14.8070  -17.8597    0.0000 C   0  0  0  0  0  0  0  0  0  0  0  0
  -16.2842  -18.1202    0.0000 O   0  0  0  0  0  0  0  0  0  0  0  0
  -17.2483  -16.9711    0.0000 C   0  0  0  0  0  0  0  0  0  0  0  0
  -13.8428  -19.0088    0.0000 C   0  0  0  0  0  0  0  0  0  0  0  0
  -14.3558  -20.4183    0.0000 C   0  0  0  0  0  0  0  0  0  0  0  0
  -13.3916  -21.5674    0.0000 C   0  0  0  0  0  0  0  0  0  0  0  0
  -13.9047  -22.9769    0.0000 C   0  0  0  0  0  0  0  0  0  0  0  0
  -12.9405  -24.1260    0.0000 P   0  0  0  0  0  0  0  0  0  0  0  0
  -11.9763  -22.9769    0.0000 O   0  0  0  0  0  0  0  0  0  0  0  0
  -14.2395  -24.8760    0.0000 O   0  0  0  0  0  0  0  0  0  0  0  0
  -14.2395  -26.3760    0.0000 C   0  0  0  0  0  0  0  0  0  0  0  0
  -15.5385  -27.1260    0.0000 C   0  0  0  0  0  0  0  0  0  0  0  0
  -15.5385  -28.6260    0.0000 C   0  0  0  0  0  0  0  0  0  0  0  0
  -14.2395  -29.3760    0.0000 C   0  0  0  0  0  0  0  0  0  0  0  0
  -12.9405  -28.6260    0.0000 C   0  0  0  0  0  0  0  0  0  0  0  0
  -12.9405  -27.1260    0.0000 C   0  0  0  0  0  0  0  0  0  0  0  0
  -11.6414  -26.3760    0.0000 C   0  0  0  0  0  0  0  0  0  0  0  0
  -10.3424  -27.1260    0.0000 C   0  0  0  0  0  0  0  0  0  0  0  0
   -9.0434  -26.3760    0.0000 C   0  0  0  0  0  0  0  0  0  0  0  0
   -9.0434  -24.8760    0.0000 C   0  0  0  0  0  0  0  0  0  0  0  0
  -10.3424  -24.1260    0.0000 C   0  0  0  0  0  0  0  0  0  0  0  0
  -11.6414  -24.8760    0.0000 C   0  0  0  0  0  0  0  0  0  0  0  0
  -12.3656  -18.7483    0.0000 C   0  0  0  0  0  0  0  0  0  0  0  0
   -7.9339  -17.9669    0.0000 C   0  0  0  0  0  0  0  0  0  0  0  0
   -6.4567  -17.7064    0.0000 C   0  0  0  0  0  0  0  0  0  0  0  0
   -5.4925  -18.8555    0.0000 C   0  0  0  0  0  0  0  0  0  0  0  0
   -6.0056  -20.2650    0.0000 C   0  0  0  0  0  0  0  0  0  0  0  0
   -5.0414  -21.4141    0.0000 C   0  0  0  0  0  0  0  0  0  0  0  0
   -5.5544  -22.8236    0.0000 P   0  0  0  0  0  0  0  0  0  0  0  0
   -6.8535  -22.0736    0.0000 O   0  0  0  0  0  0  0  0  0  0  0  0
   -4.0772  -23.0841    0.0000 O   0  0  0  0  0  0  0  0  0  0  0  0
   -3.5642  -24.4936    0.0000 C   0  0  0  0  0  0  0  0  0  0  0  0
   -2.0870  -24.7541    0.0000 C   0  0  0  0  0  0  0  0  0  0  0  0
   -1.5739  -26.1637    0.0000 C   0  0  0  0  0  0  0  0  0  0  0  0
   -2.5381  -27.3127    0.0000 C   0  0  0  0  0  0  0  0  0  0  0  0
   -4.0153  -27.0522    0.0000 C   0  0  0  0  0  0  0  0  0  0  0  0
   -4.5284  -25.6427    0.0000 C   0  0  0  0  0  0  0  0  0  0  0  0
   -6.0056  -25.3822    0.0000 C   0  0  0  0  0  0  0  0  0  0  0  0
   -6.9697  -26.5313    0.0000 C   0  0  0  0  0  0  0  0  0  0  0  0
   -8.4470  -26.2708    0.0000 C   0  0  0  0  0  0  0  0  0  0  0  0
   -8.9600  -24.8613    0.0000 C   0  0  0  0  0  0  0  0  0  0  0  0
   -7.9958  -23.7122    0.0000 C   0  0  0  0  0  0  0  0  0  0  0  0
   -6.5186  -23.9727    0.0000 C   0  0  0  0  0  0  0  0  0  0  0  0
   -7.0330  -12.1236    0.0000 C   0  0  0  0  0  0  0  0  0  0  0  0
   -8.1821  -13.0878    0.0000 C   0  0  0  0  0  0  0  0  0  0  0  0
   -9.5916  -12.5747    0.0000 C   0  0  0  0  0  0  0  0  0  0  0  0
  -10.7407  -13.5389    0.0000 C   0  0  0  0  0  0  0  0  0  0  0  0
  -12.1502  -13.0259    0.0000 P   0  0  0  0  0  0  0  0  0  0  0  0
  -11.4002  -11.7269    0.0000 O   0  0  0  0  0  0  0  0  0  0  0  0
  -12.4107  -14.5031    0.0000 O   0  0  0  0  0  0  0  0  0  0  0  0
  -13.8202  -15.0161    0.0000 C   0  0  0  0  0  0  0  0  0  0  0  0
  -14.0807  -16.4934    0.0000 C   0  0  0  0  0  0  0  0  0  0  0  0
  -15.4902  -17.0064    0.0000 C   0  0  0  0  0  0  0  0  0  0  0  0
  -16.6393  -16.0422    0.0000 C   0  0  0  0  0  0  0  0  0  0  0  0
  -16.3788  -14.5650    0.0000 C   0  0  0  0  0  0  0  0  0  0  0  0
  -14.9693  -14.0520    0.0000 C   0  0  0  0  0  0  0  0  0  0  0  0
  -14.7088  -12.5747    0.0000 C   0  0  0  0  0  0  0  0  0  0  0  0
  -15.8579  -11.6106    0.0000 C   0  0  0  0  0  0  0  0  0  0  0  0
  -15.5974  -10.1334    0.0000 C   0  0  0  0  0  0  0  0  0  0  0  0
  -14.1879   -9.6203    0.0000 C   0  0  0  0  0  0  0  0  0  0  0  0
  -13.0388  -10.5845    0.0000 C   0  0  0  0  0  0  0  0  0  0  0  0
  -13.2993  -12.0617    0.0000 C   0  0  0  0  0  0  0  0  0  0  0  0
   -7.2935  -10.6464    0.0000 C   0  0  0  0  0  0  0  0  0  0  0  0
   -5.5163   -5.7636    0.0000 C   0  0  0  0  0  0  0  0  0  0  0  0
   -5.7768   -4.2864    0.0000 C   0  0  0  0  0  0  0  0  0  0  0  0
   -4.6277   -3.3222    0.0000 C   0  0  0  0  0  0  0  0  0  0  0  0
   -4.8882   -1.8450    0.0000 C   0  0  0  0  0  0  0  0  0  0  0  0
   -3.7391   -0.8808    0.0000 C   0  0  0  0  0  0  0  0  0  0  0  0
   -3.9996    0.5964    0.0000 P   0  0  0  0  0  0  0  0  0  0  0  0
   -5.4091    0.0834    0.0000 O   0  0  0  0  0  0  0  0  0  0  0  0
   -2.4996    0.5964    0.0000 O   0  0  0  0  0  0  0  0  0  0  0  0
   -1.7496    1.8954    0.0000 C   0  0  0  0  0  0  0  0  0  0  0  0
   -0.2496    1.8954    0.0000 C   0  0  0  0  0  0  0  0  0  0  0  0
    0.5004    3.1945    0.0000 C   0  0  0  0  0  0  0  0  0  0  0  0
   -0.2496    4.4935    0.0000 C   0  0  0  0  0  0  0  0  0  0  0  0
   -1.7496    4.4935    0.0000 C   0  0  0  0  0  0  0  0  0  0  0  0
   -2.4996    3.1945    0.0000 C   0  0  0  0  0  0  0  0  0  0  0  0
   -3.9996    3.1945    0.0000 C   0  0  0  0  0  0  0  0  0  0  0  0
   -4.7496    4.4935    0.0000 C   0  0  0  0  0  0  0  0  0  0  0  0
   -6.2496    4.4935    0.0000 C   0  0  0  0  0  0  0  0  0  0  0  0
   -6.9996    3.1945    0.0000 C   0  0  0  0  0  0  0  0  0  0  0  0
   -6.2496    1.8954    0.0000 C   0  0  0  0  0  0  0  0  0  0  0  0
   -4.7496    1.8954    0.0000 C   0  0  0  0  0  0  0  0  0  0  0  0
  1  2  1  0
  2  3  1  0
  3  4  2  0
  4  5  1  0
  5  6  2  0
  6  7  1  0
  7  8  1  0
  7  9  1  0
  7 10  1  0
 10 11  2  0
 11 12  1  0
 12 13  2  0
 13 14  1  0
 14 15  1  0
 15 16  1  0
 16 17  1  0
 17 18  2  0
 18 19  1  0
 19 20  2  0
 20 21  1  0
 21 22  1  0
 21 23  1  0
 21 24  1  0
 24 25  2  0
 25 26  1  0
 26 27  2  0
 27 28  1  0
 28 29  1  0
 27 30  1  0
 30 31  1  0
 31 32  1  0
 32 33  1  0
 33 34  1  0
 34 35  2  0
 34 36  1  0
 36 37  1  0
 37 38  2  0
 38 39  1  0
 39 40  2  0
 40 41  1  0
 41 42  2  0
 42 43  1  0
 43 44  2  0
 44 45  1  0
 45 46  2  0
 46 47  1  0
 47 48  2  0
 30 49  2  0
 20 50  1  0
 50 51  2  0
 51 52  1  0
 52 53  1  0
 53 54  1  0
 54 55  1  0
 55 56  2  0
 55 57  1  0
 57 58  1  0
 58 59  2  0
 59 60  1  0
 60 61  2  0
 61 62  1  0
 62 63  2  0
 63 64  1  0
 64 65  2  0
 65 66  1  0
 66 67  2  0
 67 68  1  0
 68 69  2  0
 15 70  1  0
 70 71  1  0
 71 72  2  0
 72 73  1  0
 73 74  2  0
 74 75  1  0
 75 76  1  0
 75 77  1  0
 75 78  1  0
 78 79  2  0
 79 80  1  0
 80 81  2  0
 81 82  1  0
 82 83  1  0
 81 84  1  0
 84 85  1  0
 85 86  1  0
 86 87  1  0
 87 88  1  0
 88 89  2  0
 88 90  1  0
 90 91  1  0
 91 92  2  0
 92 93  1  0
 93 94  2  0
 94 95  1  0
 95 96  2  0
 96 97  1  0
 97 98  2  0
 98 99  1  0
 99100  2  0
100101  1  0
101102  2  0
 84103  2  0
 74104  1  0
104105  2  0
105106  1  0
106107  1  0
107108  1  0
108109  1  0
109110  2  0
109111  1  0
111112  1  0
112113  2  0
113114  1  0
114115  2  0
115116  1  0
116117  2  0
117118  1  0
118119  2  0
119120  1  0
120121  2  0
121122  1  0
122123  2  0
 15124  1  0
124125  1  0
125126  2  0
126127  1  0
127128  2  0
128129  1  0
129130  1  0
129131  1  0
129132  1  0
132133  2  0
133134  1  0
134135  2  0
135136  1  0
136137  1  0
135138  1  0
138139  1  0
139140  1  0
140141  1  0
141142  1  0
142143  2  0
142144  1  0
144145  1  0
145146  2  0
146147  1  0
147148  2  0
148149  1  0
149150  2  0
150151  1  0
151152  2  0
152153  1  0
153154  2  0
154155  1  0
155156  2  0
138157  2  0
128158  1  0
158159  2  0
159160  1  0
160161  1  0
161162  1  0
162163  1  0
163164  2  0
163165  1  0
165166  1  0
166167  2  0
167168  1  0
168169  2  0
169170  1  0
170171  2  0
171172  1  0
172173  2  0
173174  1  0
174175  2  0
175176  1  0
176177  2  0
 13178  1  0
178179  1  0
179180  1  0
180181  1  0
181182  1  0
182183  2  0
182184  1  0
184185  1  0
185186  2  0
186187  1  0
187188  2  0
188189  1  0
189190  2  0
190191  1  0
191192  2  0
192193  1  0
193194  2  0
194195  1  0
195196  2  0
178197  2  0
  6198  1  0
198199  2  0
199200  1  0
200201  1  0
201202  1  0
202203  1  0
203204  2  0
203205  1  0
205206  1  0
206207  2  0
207208  1  0
208209  2  0
209210  1  0
210211  2  0
211212  1  0
212213  2  0
213214  1  0
214215  2  0
215216  1  0
216217  2  0
199  3  1  0
217203  1  0
197 10  1  0
211206  1  0
217212  1  0
 51 17  1  0
 69 55  1  0
105 71  1  0
123109  1  0
159125  1  0
177163  1  0
196182  1  0
 49 24  1  0
 63 58  1  0
 69 64  1  0
103 78  1  0
117112  1  0
123118  1  0
157132  1  0
171166  1  0
177172  1  0
190185  1  0
196191  1  0
 48 34  1  0
102 88  1  0
156142  1  0
 42 37  1  0
 48 43  1  0
 96 91  1  0
102 97  1  0
150145  1  0
156151  1  0
M  END
>  <Candidate_ID>  (379) 
CAND_R2_379

>  <Candidate_Name>  (379) 
TetraDSi-OH-methyl-all

>  <Parent_Seed_ID>  (379) 
TRAIN_103

>  <Parent_Name>  (379) 
TetraDSi

>  <Transformation_Code>  (379) 
OH_methyl_all

>  <Design_Family>  (379) 
P-Si

>  <Preparation_Type>  (379) 
Additive

>  <Synthesis_Level>  (379) 
C

>  <Parent_Tanimoto_r3>  (379) 
0.8172043010752689

>  <Max_Train_Tanimoto_r3>  (379) 
0.8172043010752689

>  <Risk_Flags>  (379) 
high molecular weight; high DOPO count; exploratory only; excluded from formal screening

$$$$
CAND_R2_380 | TetraDSi-OH-acetyl
     RDKit          2D

216247  0  0  0  0  0  0  0  0999 V2000
  -13.5953   -3.1362    0.0000 C   0  0  0  0  0  0  0  0  0  0  0  0
  -12.6311   -4.2853    0.0000 C   0  0  0  0  0  0  0  0  0  0  0  0
  -13.4699   -5.5288    0.0000 O   0  0  0  0  0  0  0  0  0  0  0  0
  -11.1539   -4.0248    0.0000 O   0  0  0  0  0  0  0  0  0  0  0  0
  -10.1897   -5.1739    0.0000 C   0  0  0  0  0  0  0  0  0  0  0  0
   -8.7125   -4.9134    0.0000 C   0  0  0  0  0  0  0  0  0  0  0  0
   -7.7483   -6.0625    0.0000 C   0  0  0  0  0  0  0  0  0  0  0  0
   -8.2613   -7.4720    0.0000 C   0  0  0  0  0  0  0  0  0  0  0  0
   -7.2971   -8.6211    0.0000 C   0  0  0  0  0  0  0  0  0  0  0  0
   -8.4462   -9.5852    0.0000 C   0  0  0  0  0  0  0  0  0  0  0  0
   -6.4155   -7.4075    0.0000 C   0  0  0  0  0  0  0  0  0  0  0  0
   -6.3330   -9.7701    0.0000 C   0  0  0  0  0  0  0  0  0  0  0  0
   -6.8460  -11.1797    0.0000 C   0  0  0  0  0  0  0  0  0  0  0  0
   -5.8818  -12.3287    0.0000 C   0  0  0  0  0  0  0  0  0  0  0  0
   -4.4046  -12.0683    0.0000 C   0  0  0  0  0  0  0  0  0  0  0  0
   -3.4404  -13.2173    0.0000 O   0  0  0  0  0  0  0  0  0  0  0  0
   -3.9534  -14.6269    0.0000 Si  0  0  0  0  0  4  0  0  0  0  0  0
   -2.5439  -15.1399    0.0000 O   0  0  0  0  0  0  0  0  0  0  0  0
   -1.3948  -14.1757    0.0000 C   0  0  0  0  0  0  0  0  0  0  0  0
   -1.6553  -12.6985    0.0000 C   0  0  0  0  0  0  0  0  0  0  0  0
   -0.5062  -11.7343    0.0000 C   0  0  0  0  0  0  0  0  0  0  0  0
    0.9033  -12.2474    0.0000 C   0  0  0  0  0  0  0  0  0  0  0  0
    2.0524  -11.2832    0.0000 C   0  0  0  0  0  0  0  0  0  0  0  0
    1.0882  -10.1341    0.0000 C   0  0  0  0  0  0  0  0  0  0  0  0
    3.0165  -12.4322    0.0000 C   0  0  0  0  0  0  0  0  0  0  0  0
    3.2014  -10.3190    0.0000 C   0  0  0  0  0  0  0  0  0  0  0  0
    2.9410   -8.8418    0.0000 C   0  0  0  0  0  0  0  0  0  0  0  0
    4.0900   -7.8776    0.0000 C   0  0  0  0  0  0  0  0  0  0  0  0
    5.4996   -8.3906    0.0000 C   0  0  0  0  0  0  0  0  0  0  0  0
    6.6486   -7.4264    0.0000 O   0  0  0  0  0  0  0  0  0  0  0  0
    5.7600   -9.8678    0.0000 C   0  0  0  0  0  0  0  0  0  0  0  0
    7.1696  -10.3809    0.0000 C   0  0  0  0  0  0  0  0  0  0  0  0
    7.4300  -11.8581    0.0000 C   0  0  0  0  0  0  0  0  0  0  0  0
    8.8396  -12.3711    0.0000 C   0  0  0  0  0  0  0  0  0  0  0  0
    9.1001  -13.8483    0.0000 P   0  0  0  0  0  0  0  0  0  0  0  0
    7.6001  -13.8483    0.0000 O   0  0  0  0  0  0  0  0  0  0  0  0
   10.5096  -13.3353    0.0000 O   0  0  0  0  0  0  0  0  0  0  0  0
   11.6587  -14.2995    0.0000 C   0  0  0  0  0  0  0  0  0  0  0  0
   13.0682  -13.7864    0.0000 C   0  0  0  0  0  0  0  0  0  0  0  0
   14.2173  -14.7506    0.0000 C   0  0  0  0  0  0  0  0  0  0  0  0
   13.9568  -16.2278    0.0000 C   0  0  0  0  0  0  0  0  0  0  0  0
   12.5473  -16.7409    0.0000 C   0  0  0  0  0  0  0  0  0  0  0  0
   11.3982  -15.7767    0.0000 C   0  0  0  0  0  0  0  0  0  0  0  0
    9.9887  -16.2897    0.0000 C   0  0  0  0  0  0  0  0  0  0  0  0
    9.7282  -17.7669    0.0000 C   0  0  0  0  0  0  0  0  0  0  0  0
    8.3186  -18.2800    0.0000 C   0  0  0  0  0  0  0  0  0  0  0  0
    7.1696  -17.3158    0.0000 C   0  0  0  0  0  0  0  0  0  0  0  0
    7.4300  -15.8386    0.0000 C   0  0  0  0  0  0  0  0  0  0  0  0
    8.8396  -15.3255    0.0000 C   0  0  0  0  0  0  0  0  0  0  0  0
    4.6110  -10.8320    0.0000 C   0  0  0  0  0  0  0  0  0  0  0  0
    1.1638  -13.7246    0.0000 C   0  0  0  0  0  0  0  0  0  0  0  0
    0.0147  -14.6887    0.0000 C   0  0  0  0  0  0  0  0  0  0  0  0
    0.2752  -16.1660    0.0000 C   0  0  0  0  0  0  0  0  0  0  0  0
   -0.8739  -17.1301    0.0000 C   0  0  0  0  0  0  0  0  0  0  0  0
   -2.2834  -16.6171    0.0000 C   0  0  0  0  0  0  0  0  0  0  0  0
   -2.5439  -15.1399    0.0000 P   0  0  0  0  0  0  0  0  0  0  0  0
   -3.7874  -15.9788    0.0000 O   0  0  0  0  0  0  0  0  0  0  0  0
   -1.0439  -15.1399    0.0000 O   0  0  0  0  0  0  0  0  0  0  0  0
   -0.2939  -13.8409    0.0000 C   0  0  0  0  0  0  0  0  0  0  0  0
    1.2061  -13.8409    0.0000 C   0  0  0  0  0  0  0  0  0  0  0  0
    1.9561  -12.5418    0.0000 C   0  0  0  0  0  0  0  0  0  0  0  0
    1.2061  -11.2428    0.0000 C   0  0  0  0  0  0  0  0  0  0  0  0
   -0.2939  -11.2428    0.0000 C   0  0  0  0  0  0  0  0  0  0  0  0
   -1.0439  -12.5418    0.0000 C   0  0  0  0  0  0  0  0  0  0  0  0
   -2.5439  -12.5418    0.0000 C   0  0  0  0  0  0  0  0  0  0  0  0
   -3.2939  -11.2428    0.0000 C   0  0  0  0  0  0  0  0  0  0  0  0
   -4.7939  -11.2428    0.0000 C   0  0  0  0  0  0  0  0  0  0  0  0
   -5.5439  -12.5418    0.0000 C   0  0  0  0  0  0  0  0  0  0  0  0
   -4.7939  -13.8409    0.0000 C   0  0  0  0  0  0  0  0  0  0  0  0
   -3.2939  -13.8409    0.0000 C   0  0  0  0  0  0  0  0  0  0  0  0
   -5.3630  -14.1138    0.0000 O   0  0  0  0  0  0  0  0  0  0  0  0
   -5.6235  -12.6366    0.0000 C   0  0  0  0  0  0  0  0  0  0  0  0
   -4.4744  -11.6724    0.0000 C   0  0  0  0  0  0  0  0  0  0  0  0
   -4.7349  -10.1952    0.0000 C   0  0  0  0  0  0  0  0  0  0  0  0
   -6.1444   -9.6822    0.0000 C   0  0  0  0  0  0  0  0  0  0  0  0
   -6.4049   -8.2050    0.0000 C   0  0  0  0  0  0  0  0  0  0  0  0
   -7.9012   -8.1003    0.0000 C   0  0  0  0  0  0  0  0  0  0  0  0
   -4.9277   -7.9445    0.0000 C   0  0  0  0  0  0  0  0  0  0  0  0
   -6.6653   -6.7278    0.0000 C   0  0  0  0  0  0  0  0  0  0  0  0
   -5.5163   -5.7636    0.0000 C   0  0  0  0  0  0  0  0  0  0  0  0
   -5.7768   -4.2864    0.0000 C   0  0  0  0  0  0  0  0  0  0  0  0
   -7.1863   -3.7734    0.0000 C   0  0  0  0  0  0  0  0  0  0  0  0
   -7.4468   -2.2961    0.0000 O   0  0  0  0  0  0  0  0  0  0  0  0
   -8.3354   -4.7375    0.0000 C   0  0  0  0  0  0  0  0  0  0  0  0
   -9.7449   -4.2245    0.0000 C   0  0  0  0  0  0  0  0  0  0  0  0
  -10.0054   -2.7473    0.0000 C   0  0  0  0  0  0  0  0  0  0  0  0
  -11.4149   -2.2343    0.0000 C   0  0  0  0  0  0  0  0  0  0  0  0
  -11.6754   -0.7571    0.0000 P   0  0  0  0  0  0  0  0  0  0  0  0
  -10.1754   -0.7571    0.0000 O   0  0  0  0  0  0  0  0  0  0  0  0
  -13.0849   -1.2701    0.0000 O   0  0  0  0  0  0  0  0  0  0  0  0
  -14.2340   -0.3059    0.0000 C   0  0  0  0  0  0  0  0  0  0  0  0
  -15.6435   -0.8189    0.0000 C   0  0  0  0  0  0  0  0  0  0  0  0
  -16.7926    0.1452    0.0000 C   0  0  0  0  0  0  0  0  0  0  0  0
  -16.5321    1.6225    0.0000 C   0  0  0  0  0  0  0  0  0  0  0  0
  -15.1226    2.1355    0.0000 C   0  0  0  0  0  0  0  0  0  0  0  0
  -13.9735    1.1713    0.0000 C   0  0  0  0  0  0  0  0  0  0  0  0
  -12.5640    1.6843    0.0000 C   0  0  0  0  0  0  0  0  0  0  0  0
  -12.3035    3.1616    0.0000 C   0  0  0  0  0  0  0  0  0  0  0  0
  -10.8940    3.6746    0.0000 C   0  0  0  0  0  0  0  0  0  0  0  0
   -9.7449    2.7104    0.0000 C   0  0  0  0  0  0  0  0  0  0  0  0
  -10.0054    1.2332    0.0000 C   0  0  0  0  0  0  0  0  0  0  0  0
  -11.4149    0.7202    0.0000 C   0  0  0  0  0  0  0  0  0  0  0  0
   -8.0749   -6.2147    0.0000 C   0  0  0  0  0  0  0  0  0  0  0  0
   -7.2935  -10.6464    0.0000 C   0  0  0  0  0  0  0  0  0  0  0  0
   -7.0330  -12.1236    0.0000 C   0  0  0  0  0  0  0  0  0  0  0  0
   -8.1821  -13.0878    0.0000 C   0  0  0  0  0  0  0  0  0  0  0  0
   -9.5916  -12.5747    0.0000 C   0  0  0  0  0  0  0  0  0  0  0  0
  -10.7407  -13.5389    0.0000 C   0  0  0  0  0  0  0  0  0  0  0  0
  -12.1502  -13.0259    0.0000 P   0  0  0  0  0  0  0  0  0  0  0  0
  -11.4002  -11.7269    0.0000 O   0  0  0  0  0  0  0  0  0  0  0  0
  -12.4107  -14.5031    0.0000 O   0  0  0  0  0  0  0  0  0  0  0  0
  -13.8202  -15.0161    0.0000 C   0  0  0  0  0  0  0  0  0  0  0  0
  -14.0807  -16.4934    0.0000 C   0  0  0  0  0  0  0  0  0  0  0  0
  -15.4902  -17.0064    0.0000 C   0  0  0  0  0  0  0  0  0  0  0  0
  -16.6393  -16.0422    0.0000 C   0  0  0  0  0  0  0  0  0  0  0  0
  -16.3788  -14.5650    0.0000 C   0  0  0  0  0  0  0  0  0  0  0  0
  -14.9693  -14.0520    0.0000 C   0  0  0  0  0  0  0  0  0  0  0  0
  -14.7088  -12.5747    0.0000 C   0  0  0  0  0  0  0  0  0  0  0  0
  -15.8579  -11.6106    0.0000 C   0  0  0  0  0  0  0  0  0  0  0  0
  -15.5974  -10.1334    0.0000 C   0  0  0  0  0  0  0  0  0  0  0  0
  -14.1879   -9.6203    0.0000 C   0  0  0  0  0  0  0  0  0  0  0  0
  -13.0388  -10.5845    0.0000 C   0  0  0  0  0  0  0  0  0  0  0  0
  -13.2993  -12.0617    0.0000 C   0  0  0  0  0  0  0  0  0  0  0  0
   -4.4665  -16.0364    0.0000 O   0  0  0  0  0  0  0  0  0  0  0  0
   -5.9437  -16.2969    0.0000 C   0  0  0  0  0  0  0  0  0  0  0  0
   -6.9079  -15.1478    0.0000 C   0  0  0  0  0  0  0  0  0  0  0  0
   -8.3851  -15.4083    0.0000 C   0  0  0  0  0  0  0  0  0  0  0  0
   -8.8981  -16.8178    0.0000 C   0  0  0  0  0  0  0  0  0  0  0  0
  -10.3753  -17.0783    0.0000 C   0  0  0  0  0  0  0  0  0  0  0  0
  -10.6358  -15.6011    0.0000 C   0  0  0  0  0  0  0  0  0  0  0  0
  -10.1148  -18.5555    0.0000 C   0  0  0  0  0  0  0  0  0  0  0  0
  -11.8525  -17.3388    0.0000 C   0  0  0  0  0  0  0  0  0  0  0  0
  -12.8167  -16.1897    0.0000 C   0  0  0  0  0  0  0  0  0  0  0  0
  -14.2939  -16.4502    0.0000 C   0  0  0  0  0  0  0  0  0  0  0  0
  -14.8070  -17.8597    0.0000 C   0  0  0  0  0  0  0  0  0  0  0  0
  -16.2842  -18.1202    0.0000 O   0  0  0  0  0  0  0  0  0  0  0  0
  -13.8428  -19.0088    0.0000 C   0  0  0  0  0  0  0  0  0  0  0  0
  -14.3558  -20.4183    0.0000 C   0  0  0  0  0  0  0  0  0  0  0  0
  -13.3916  -21.5674    0.0000 C   0  0  0  0  0  0  0  0  0  0  0  0
  -13.9047  -22.9769    0.0000 C   0  0  0  0  0  0  0  0  0  0  0  0
  -12.9405  -24.1260    0.0000 P   0  0  0  0  0  0  0  0  0  0  0  0
  -11.9763  -22.9769    0.0000 O   0  0  0  0  0  0  0  0  0  0  0  0
  -14.2395  -24.8760    0.0000 O   0  0  0  0  0  0  0  0  0  0  0  0
  -14.2395  -26.3760    0.0000 C   0  0  0  0  0  0  0  0  0  0  0  0
  -15.5385  -27.1260    0.0000 C   0  0  0  0  0  0  0  0  0  0  0  0
  -15.5385  -28.6260    0.0000 C   0  0  0  0  0  0  0  0  0  0  0  0
  -14.2395  -29.3760    0.0000 C   0  0  0  0  0  0  0  0  0  0  0  0
  -12.9405  -28.6260    0.0000 C   0  0  0  0  0  0  0  0  0  0  0  0
  -12.9405  -27.1260    0.0000 C   0  0  0  0  0  0  0  0  0  0  0  0
  -11.6414  -26.3760    0.0000 C   0  0  0  0  0  0  0  0  0  0  0  0
  -10.3424  -27.1260    0.0000 C   0  0  0  0  0  0  0  0  0  0  0  0
   -9.0434  -26.3760    0.0000 C   0  0  0  0  0  0  0  0  0  0  0  0
   -9.0434  -24.8760    0.0000 C   0  0  0  0  0  0  0  0  0  0  0  0
  -10.3424  -24.1260    0.0000 C   0  0  0  0  0  0  0  0  0  0  0  0
  -11.6414  -24.8760    0.0000 C   0  0  0  0  0  0  0  0  0  0  0  0
  -12.3656  -18.7483    0.0000 C   0  0  0  0  0  0  0  0  0  0  0  0
   -7.9339  -17.9669    0.0000 C   0  0  0  0  0  0  0  0  0  0  0  0
   -6.4567  -17.7064    0.0000 C   0  0  0  0  0  0  0  0  0  0  0  0
   -5.4925  -18.8555    0.0000 C   0  0  0  0  0  0  0  0  0  0  0  0
   -6.0056  -20.2650    0.0000 C   0  0  0  0  0  0  0  0  0  0  0  0
   -5.0414  -21.4141    0.0000 C   0  0  0  0  0  0  0  0  0  0  0  0
   -5.5544  -22.8236    0.0000 P   0  0  0  0  0  0  0  0  0  0  0  0
   -6.8535  -22.0736    0.0000 O   0  0  0  0  0  0  0  0  0  0  0  0
   -4.0772  -23.0841    0.0000 O   0  0  0  0  0  0  0  0  0  0  0  0
   -3.5642  -24.4936    0.0000 C   0  0  0  0  0  0  0  0  0  0  0  0
   -2.0870  -24.7541    0.0000 C   0  0  0  0  0  0  0  0  0  0  0  0
   -1.5739  -26.1637    0.0000 C   0  0  0  0  0  0  0  0  0  0  0  0
   -2.5381  -27.3127    0.0000 C   0  0  0  0  0  0  0  0  0  0  0  0
   -4.0153  -27.0522    0.0000 C   0  0  0  0  0  0  0  0  0  0  0  0
   -4.5284  -25.6427    0.0000 C   0  0  0  0  0  0  0  0  0  0  0  0
   -6.0056  -25.3822    0.0000 C   0  0  0  0  0  0  0  0  0  0  0  0
   -6.9697  -26.5313    0.0000 C   0  0  0  0  0  0  0  0  0  0  0  0
   -8.4470  -26.2708    0.0000 C   0  0  0  0  0  0  0  0  0  0  0  0
   -8.9600  -24.8613    0.0000 C   0  0  0  0  0  0  0  0  0  0  0  0
   -7.9958  -23.7122    0.0000 C   0  0  0  0  0  0  0  0  0  0  0  0
   -6.5186  -23.9727    0.0000 C   0  0  0  0  0  0  0  0  0  0  0  0
   -3.8916  -10.6587    0.0000 C   0  0  0  0  0  0  0  0  0  0  0  0
   -2.4144  -10.3983    0.0000 C   0  0  0  0  0  0  0  0  0  0  0  0
   -1.9013   -8.9887    0.0000 C   0  0  0  0  0  0  0  0  0  0  0  0
   -0.4241   -8.7282    0.0000 C   0  0  0  0  0  0  0  0  0  0  0  0
    0.0889   -7.3187    0.0000 P   0  0  0  0  0  0  0  0  0  0  0  0
   -1.3883   -7.0582    0.0000 O   0  0  0  0  0  0  0  0  0  0  0  0
    1.3880   -8.0687    0.0000 O   0  0  0  0  0  0  0  0  0  0  0  0
    2.6870   -7.3187    0.0000 C   0  0  0  0  0  0  0  0  0  0  0  0
    3.9860   -8.0687    0.0000 C   0  0  0  0  0  0  0  0  0  0  0  0
    5.2851   -7.3187    0.0000 C   0  0  0  0  0  0  0  0  0  0  0  0
    5.2851   -5.8187    0.0000 C   0  0  0  0  0  0  0  0  0  0  0  0
    3.9860   -5.0687    0.0000 C   0  0  0  0  0  0  0  0  0  0  0  0
    2.6870   -5.8187    0.0000 C   0  0  0  0  0  0  0  0  0  0  0  0
    1.3880   -5.0687    0.0000 C   0  0  0  0  0  0  0  0  0  0  0  0
    1.3880   -3.5687    0.0000 C   0  0  0  0  0  0  0  0  0  0  0  0
    0.0889   -2.8187    0.0000 C   0  0  0  0  0  0  0  0  0  0  0  0
   -1.2101   -3.5687    0.0000 C   0  0  0  0  0  0  0  0  0  0  0  0
   -1.2101   -5.0687    0.0000 C   0  0  0  0  0  0  0  0  0  0  0  0
    0.0889   -5.8187    0.0000 C   0  0  0  0  0  0  0  0  0  0  0  0
   -4.8557   -9.5097    0.0000 C   0  0  0  0  0  0  0  0  0  0  0  0
   -9.7385   -7.7325    0.0000 C   0  0  0  0  0  0  0  0  0  0  0  0
  -10.7027   -6.5834    0.0000 C   0  0  0  0  0  0  0  0  0  0  0  0
  -12.1799   -6.8439    0.0000 C   0  0  0  0  0  0  0  0  0  0  0  0
  -13.1441   -5.6948    0.0000 C   0  0  0  0  0  0  0  0  0  0  0  0
  -14.6213   -5.9553    0.0000 C   0  0  0  0  0  0  0  0  0  0  0  0
  -15.5855   -4.8062    0.0000 P   0  0  0  0  0  0  0  0  0  0  0  0
  -16.5497   -5.9553    0.0000 O   0  0  0  0  0  0  0  0  0  0  0  0
  -14.2865   -4.0562    0.0000 O   0  0  0  0  0  0  0  0  0  0  0  0
  -14.2865   -2.5562    0.0000 C   0  0  0  0  0  0  0  0  0  0  0  0
  -12.9874   -1.8062    0.0000 C   0  0  0  0  0  0  0  0  0  0  0  0
  -12.9874   -0.3062    0.0000 C   0  0  0  0  0  0  0  0  0  0  0  0
  -14.2865    0.4438    0.0000 C   0  0  0  0  0  0  0  0  0  0  0  0
  -15.5855   -0.3062    0.0000 C   0  0  0  0  0  0  0  0  0  0  0  0
  -15.5855   -1.8062    0.0000 C   0  0  0  0  0  0  0  0  0  0  0  0
  -16.8845   -2.5562    0.0000 C   0  0  0  0  0  0  0  0  0  0  0  0
  -18.1836   -1.8062    0.0000 C   0  0  0  0  0  0  0  0  0  0  0  0
  -19.4826   -2.5562    0.0000 C   0  0  0  0  0  0  0  0  0  0  0  0
  -19.4826   -4.0562    0.0000 C   0  0  0  0  0  0  0  0  0  0  0  0
  -18.1836   -4.8062    0.0000 C   0  0  0  0  0  0  0  0  0  0  0  0
  -16.8845   -4.0562    0.0000 C   0  0  0  0  0  0  0  0  0  0  0  0
  1  2  1  0
  2  3  2  0
  2  4  1  0
  4  5  1  0
  5  6  2  0
  6  7  1  0
  7  8  2  0
  8  9  1  0
  9 10  1  0
  9 11  1  0
  9 12  1  0
 12 13  2  0
 13 14  1  0
 14 15  2  0
 15 16  1  0
 16 17  1  0
 17 18  1  0
 18 19  1  0
 19 20  2  0
 20 21  1  0
 21 22  2  0
 22 23  1  0
 23 24  1  0
 23 25  1  0
 23 26  1  0
 26 27  2  0
 27 28  1  0
 28 29  2  0
 29 30  1  0
 29 31  1  0
 31 32  1  0
 32 33  1  0
 33 34  1  0
 34 35  1  0
 35 36  2  0
 35 37  1  0
 37 38  1  0
 38 39  2  0
 39 40  1  0
 40 41  2  0
 41 42  1  0
 42 43  2  0
 43 44  1  0
 44 45  2  0
 45 46  1  0
 46 47  2  0
 47 48  1  0
 48 49  2  0
 31 50  2  0
 22 51  1  0
 51 52  2  0
 52 53  1  0
 53 54  1  0
 54 55  1  0
 55 56  1  0
 56 57  2  0
 56 58  1  0
 58 59  1  0
 59 60  2  0
 60 61  1  0
 61 62  2  0
 62 63  1  0
 63 64  2  0
 64 65  1  0
 65 66  2  0
 66 67  1  0
 67 68  2  0
 68 69  1  0
 69 70  2  0
 17 71  1  0
 71 72  1  0
 72 73  2  0
 73 74  1  0
 74 75  2  0
 75 76  1  0
 76 77  1  0
 76 78  1  0
 76 79  1  0
 79 80  2  0
 80 81  1  0
 81 82  2  0
 82 83  1  0
 82 84  1  0
 84 85  1  0
 85 86  1  0
 86 87  1  0
 87 88  1  0
 88 89  2  0
 88 90  1  0
 90 91  1  0
 91 92  2  0
 92 93  1  0
 93 94  2  0
 94 95  1  0
 95 96  2  0
 96 97  1  0
 97 98  2  0
 98 99  1  0
 99100  2  0
100101  1  0
101102  2  0
 84103  2  0
 75104  1  0
104105  2  0
105106  1  0
106107  1  0
107108  1  0
108109  1  0
109110  2  0
109111  1  0
111112  1  0
112113  2  0
113114  1  0
114115  2  0
115116  1  0
116117  2  0
117118  1  0
118119  2  0
119120  1  0
120121  2  0
121122  1  0
122123  2  0
 17124  1  0
124125  1  0
125126  2  0
126127  1  0
127128  2  0
128129  1  0
129130  1  0
129131  1  0
129132  1  0
132133  2  0
133134  1  0
134135  2  0
135136  1  0
135137  1  0
137138  1  0
138139  1  0
139140  1  0
140141  1  0
141142  2  0
141143  1  0
143144  1  0
144145  2  0
145146  1  0
146147  2  0
147148  1  0
148149  2  0
149150  1  0
150151  2  0
151152  1  0
152153  2  0
153154  1  0
154155  2  0
137156  2  0
128157  1  0
157158  2  0
158159  1  0
159160  1  0
160161  1  0
161162  1  0
162163  2  0
162164  1  0
164165  1  0
165166  2  0
166167  1  0
167168  2  0
168169  1  0
169170  2  0
170171  1  0
171172  2  0
172173  1  0
173174  2  0
174175  1  0
175176  2  0
 15177  1  0
177178  1  0
178179  1  0
179180  1  0
180181  1  0
181182  2  0
181183  1  0
183184  1  0
184185  2  0
185186  1  0
186187  2  0
187188  1  0
188189  2  0
189190  1  0
190191  2  0
191192  1  0
192193  2  0
193194  1  0
194195  2  0
177196  2  0
  8197  1  0
197198  2  0
198199  1  0
199200  1  0
200201  1  0
201202  1  0
202203  2  0
202204  1  0
204205  1  0
205206  2  0
206207  1  0
207208  2  0
208209  1  0
209210  2  0
210211  1  0
211212  2  0
212213  1  0
213214  2  0
214215  1  0
215216  2  0
198  5  1  0
216202  1  0
196 12  1  0
210205  1  0
216211  1  0
 52 19  1  0
 70 56  1  0
105 72  1  0
123109  1  0
158125  1  0
176162  1  0
195181  1  0
 50 26  1  0
 64 59  1  0
 70 65  1  0
103 79  1  0
117112  1  0
123118  1  0
156132  1  0
170165  1  0
176171  1  0
189184  1  0
195190  1  0
 49 35  1  0
102 88  1  0
155141  1  0
 43 38  1  0
 49 44  1  0
 96 91  1  0
102 97  1  0
149144  1  0
155150  1  0
M  END
>  <Candidate_ID>  (380) 
CAND_R2_380

>  <Candidate_Name>  (380) 
TetraDSi-OH-acetyl

>  <Parent_Seed_ID>  (380) 
TRAIN_103

>  <Parent_Name>  (380) 
TetraDSi

>  <Transformation_Code>  (380) 
OH_acetyl

>  <Design_Family>  (380) 
P-Si

>  <Preparation_Type>  (380) 
Additive

>  <Synthesis_Level>  (380) 
C

>  <Parent_Tanimoto_r3>  (380) 
0.8888888888888888

>  <Max_Train_Tanimoto_r3>  (380) 
0.8888888888888888

>  <Risk_Flags>  (380) 
high molecular weight; high DOPO count; exploratory only; excluded from formal screening

$$$$
CAND_R2_381 | TetraDSi-OH-acetyl-all
     RDKit          2D

225256  0  0  0  0  0  0  0  0999 V2000
   -9.1168   -0.3059    0.0000 C   0  0  0  0  0  0  0  0  0  0  0  0
   -8.8563   -1.7831    0.0000 C   0  0  0  0  0  0  0  0  0  0  0  0
  -10.0054   -2.7473    0.0000 O   0  0  0  0  0  0  0  0  0  0  0  0
   -7.4468   -2.2961    0.0000 O   0  0  0  0  0  0  0  0  0  0  0  0
   -7.1863   -3.7734    0.0000 C   0  0  0  0  0  0  0  0  0  0  0  0
   -8.3354   -4.7375    0.0000 C   0  0  0  0  0  0  0  0  0  0  0  0
   -8.0749   -6.2147    0.0000 C   0  0  0  0  0  0  0  0  0  0  0  0
   -6.6653   -6.7278    0.0000 C   0  0  0  0  0  0  0  0  0  0  0  0
   -6.4049   -8.2050    0.0000 C   0  0  0  0  0  0  0  0  0  0  0  0
   -4.9277   -7.9445    0.0000 C   0  0  0  0  0  0  0  0  0  0  0  0
   -7.9012   -8.1003    0.0000 C   0  0  0  0  0  0  0  0  0  0  0  0
   -6.1444   -9.6822    0.0000 C   0  0  0  0  0  0  0  0  0  0  0  0
   -4.7349  -10.1952    0.0000 C   0  0  0  0  0  0  0  0  0  0  0  0
   -4.4744  -11.6724    0.0000 C   0  0  0  0  0  0  0  0  0  0  0  0
   -5.6235  -12.6366    0.0000 C   0  0  0  0  0  0  0  0  0  0  0  0
   -5.3630  -14.1138    0.0000 O   0  0  0  0  0  0  0  0  0  0  0  0
   -3.9534  -14.6269    0.0000 Si  0  0  0  0  0  4  0  0  0  0  0  0
   -2.5439  -15.1399    0.0000 O   0  0  0  0  0  0  0  0  0  0  0  0
   -1.3948  -14.1757    0.0000 C   0  0  0  0  0  0  0  0  0  0  0  0
   -1.6553  -12.6985    0.0000 C   0  0  0  0  0  0  0  0  0  0  0  0
   -0.5062  -11.7343    0.0000 C   0  0  0  0  0  0  0  0  0  0  0  0
    0.9033  -12.2474    0.0000 C   0  0  0  0  0  0  0  0  0  0  0  0
    2.0524  -11.2832    0.0000 C   0  0  0  0  0  0  0  0  0  0  0  0
    1.0882  -10.1341    0.0000 C   0  0  0  0  0  0  0  0  0  0  0  0
    3.0165  -12.4322    0.0000 C   0  0  0  0  0  0  0  0  0  0  0  0
    3.2014  -10.3190    0.0000 C   0  0  0  0  0  0  0  0  0  0  0  0
    2.9410   -8.8418    0.0000 C   0  0  0  0  0  0  0  0  0  0  0  0
    4.0900   -7.8776    0.0000 C   0  0  0  0  0  0  0  0  0  0  0  0
    5.4996   -8.3906    0.0000 C   0  0  0  0  0  0  0  0  0  0  0  0
    6.6486   -7.4264    0.0000 O   0  0  0  0  0  0  0  0  0  0  0  0
    6.3882   -5.9492    0.0000 C   0  0  0  0  0  0  0  0  0  0  0  0
    7.5372   -4.9851    0.0000 C   0  0  0  0  0  0  0  0  0  0  0  0
    4.9786   -5.4362    0.0000 O   0  0  0  0  0  0  0  0  0  0  0  0
    5.7600   -9.8678    0.0000 C   0  0  0  0  0  0  0  0  0  0  0  0
    7.1696  -10.3809    0.0000 C   0  0  0  0  0  0  0  0  0  0  0  0
    7.4300  -11.8581    0.0000 C   0  0  0  0  0  0  0  0  0  0  0  0
    8.8396  -12.3711    0.0000 C   0  0  0  0  0  0  0  0  0  0  0  0
    9.1001  -13.8483    0.0000 P   0  0  0  0  0  0  0  0  0  0  0  0
    7.6001  -13.8483    0.0000 O   0  0  0  0  0  0  0  0  0  0  0  0
   10.5096  -13.3353    0.0000 O   0  0  0  0  0  0  0  0  0  0  0  0
   11.6587  -14.2995    0.0000 C   0  0  0  0  0  0  0  0  0  0  0  0
   13.0682  -13.7864    0.0000 C   0  0  0  0  0  0  0  0  0  0  0  0
   14.2173  -14.7506    0.0000 C   0  0  0  0  0  0  0  0  0  0  0  0
   13.9568  -16.2278    0.0000 C   0  0  0  0  0  0  0  0  0  0  0  0
   12.5473  -16.7409    0.0000 C   0  0  0  0  0  0  0  0  0  0  0  0
   11.3982  -15.7767    0.0000 C   0  0  0  0  0  0  0  0  0  0  0  0
    9.9887  -16.2897    0.0000 C   0  0  0  0  0  0  0  0  0  0  0  0
    9.7282  -17.7669    0.0000 C   0  0  0  0  0  0  0  0  0  0  0  0
    8.3186  -18.2800    0.0000 C   0  0  0  0  0  0  0  0  0  0  0  0
    7.1696  -17.3158    0.0000 C   0  0  0  0  0  0  0  0  0  0  0  0
    7.4300  -15.8386    0.0000 C   0  0  0  0  0  0  0  0  0  0  0  0
    8.8396  -15.3255    0.0000 C   0  0  0  0  0  0  0  0  0  0  0  0
    4.6110  -10.8320    0.0000 C   0  0  0  0  0  0  0  0  0  0  0  0
    1.1638  -13.7246    0.0000 C   0  0  0  0  0  0  0  0  0  0  0  0
    0.0147  -14.6887    0.0000 C   0  0  0  0  0  0  0  0  0  0  0  0
    0.2752  -16.1660    0.0000 C   0  0  0  0  0  0  0  0  0  0  0  0
    1.6847  -16.6790    0.0000 C   0  0  0  0  0  0  0  0  0  0  0  0
    1.9452  -18.1562    0.0000 C   0  0  0  0  0  0  0  0  0  0  0  0
    0.7961  -19.1204    0.0000 P   0  0  0  0  0  0  0  0  0  0  0  0
    0.0461  -17.8213    0.0000 O   0  0  0  0  0  0  0  0  0  0  0  0
    1.9452  -20.0846    0.0000 O   0  0  0  0  0  0  0  0  0  0  0  0
    1.6847  -21.5618    0.0000 C   0  0  0  0  0  0  0  0  0  0  0  0
    2.8338  -22.5260    0.0000 C   0  0  0  0  0  0  0  0  0  0  0  0
    2.5733  -24.0032    0.0000 C   0  0  0  0  0  0  0  0  0  0  0  0
    1.1638  -24.5162    0.0000 C   0  0  0  0  0  0  0  0  0  0  0  0
    0.0147  -23.5520    0.0000 C   0  0  0  0  0  0  0  0  0  0  0  0
    0.2752  -22.0748    0.0000 C   0  0  0  0  0  0  0  0  0  0  0  0
   -0.8739  -21.1106    0.0000 C   0  0  0  0  0  0  0  0  0  0  0  0
   -2.2834  -21.6237    0.0000 C   0  0  0  0  0  0  0  0  0  0  0  0
   -3.4325  -20.6595    0.0000 C   0  0  0  0  0  0  0  0  0  0  0  0
   -3.1720  -19.1823    0.0000 C   0  0  0  0  0  0  0  0  0  0  0  0
   -1.7625  -18.6692    0.0000 C   0  0  0  0  0  0  0  0  0  0  0  0
   -0.6134  -19.6334    0.0000 C   0  0  0  0  0  0  0  0  0  0  0  0
   -3.4404  -13.2173    0.0000 O   0  0  0  0  0  0  0  0  0  0  0  0
   -4.4046  -12.0683    0.0000 C   0  0  0  0  0  0  0  0  0  0  0  0
   -3.8916  -10.6587    0.0000 C   0  0  0  0  0  0  0  0  0  0  0  0
   -4.8557   -9.5097    0.0000 C   0  0  0  0  0  0  0  0  0  0  0  0
   -6.3330   -9.7701    0.0000 C   0  0  0  0  0  0  0  0  0  0  0  0
   -7.2971   -8.6211    0.0000 C   0  0  0  0  0  0  0  0  0  0  0  0
   -8.4462   -9.5852    0.0000 C   0  0  0  0  0  0  0  0  0  0  0  0
   -6.4155   -7.4075    0.0000 C   0  0  0  0  0  0  0  0  0  0  0  0
   -8.2613   -7.4720    0.0000 C   0  0  0  0  0  0  0  0  0  0  0  0
   -7.7483   -6.0625    0.0000 C   0  0  0  0  0  0  0  0  0  0  0  0
   -8.7125   -4.9134    0.0000 C   0  0  0  0  0  0  0  0  0  0  0  0
  -10.1897   -5.1739    0.0000 C   0  0  0  0  0  0  0  0  0  0  0  0
  -11.1539   -4.0248    0.0000 O   0  0  0  0  0  0  0  0  0  0  0  0
  -12.6311   -4.2853    0.0000 C   0  0  0  0  0  0  0  0  0  0  0  0
  -13.5953   -3.1362    0.0000 C   0  0  0  0  0  0  0  0  0  0  0  0
  -13.4699   -5.5288    0.0000 O   0  0  0  0  0  0  0  0  0  0  0  0
  -10.7027   -6.5834    0.0000 C   0  0  0  0  0  0  0  0  0  0  0  0
  -12.1799   -6.8439    0.0000 C   0  0  0  0  0  0  0  0  0  0  0  0
  -13.1441   -5.6948    0.0000 C   0  0  0  0  0  0  0  0  0  0  0  0
  -14.6213   -5.9553    0.0000 C   0  0  0  0  0  0  0  0  0  0  0  0
  -15.5855   -4.8062    0.0000 P   0  0  0  0  0  0  0  0  0  0  0  0
  -16.5497   -5.9553    0.0000 O   0  0  0  0  0  0  0  0  0  0  0  0
  -14.2865   -4.0562    0.0000 O   0  0  0  0  0  0  0  0  0  0  0  0
  -14.2865   -2.5562    0.0000 C   0  0  0  0  0  0  0  0  0  0  0  0
  -12.9874   -1.8062    0.0000 C   0  0  0  0  0  0  0  0  0  0  0  0
  -12.9874   -0.3062    0.0000 C   0  0  0  0  0  0  0  0  0  0  0  0
  -14.2865    0.4438    0.0000 C   0  0  0  0  0  0  0  0  0  0  0  0
  -15.5855   -0.3062    0.0000 C   0  0  0  0  0  0  0  0  0  0  0  0
  -15.5855   -1.8062    0.0000 C   0  0  0  0  0  0  0  0  0  0  0  0
  -16.8845   -2.5562    0.0000 C   0  0  0  0  0  0  0  0  0  0  0  0
  -18.1836   -1.8062    0.0000 C   0  0  0  0  0  0  0  0  0  0  0  0
  -19.4826   -2.5562    0.0000 C   0  0  0  0  0  0  0  0  0  0  0  0
  -19.4826   -4.0562    0.0000 C   0  0  0  0  0  0  0  0  0  0  0  0
  -18.1836   -4.8062    0.0000 C   0  0  0  0  0  0  0  0  0  0  0  0
  -16.8845   -4.0562    0.0000 C   0  0  0  0  0  0  0  0  0  0  0  0
   -9.7385   -7.7325    0.0000 C   0  0  0  0  0  0  0  0  0  0  0  0
   -6.8460  -11.1797    0.0000 C   0  0  0  0  0  0  0  0  0  0  0  0
   -5.8818  -12.3287    0.0000 C   0  0  0  0  0  0  0  0  0  0  0  0
   -6.3948  -13.7383    0.0000 C   0  0  0  0  0  0  0  0  0  0  0  0
   -7.8720  -13.9987    0.0000 C   0  0  0  0  0  0  0  0  0  0  0  0
   -8.3851  -15.4083    0.0000 C   0  0  0  0  0  0  0  0  0  0  0  0
   -9.8623  -15.6688    0.0000 P   0  0  0  0  0  0  0  0  0  0  0  0
   -9.8623  -14.1688    0.0000 O   0  0  0  0  0  0  0  0  0  0  0  0
   -9.3493  -17.0783    0.0000 O   0  0  0  0  0  0  0  0  0  0  0  0
  -10.3134  -18.2274    0.0000 C   0  0  0  0  0  0  0  0  0  0  0  0
   -9.8004  -19.6369    0.0000 C   0  0  0  0  0  0  0  0  0  0  0  0
  -10.7646  -20.7860    0.0000 C   0  0  0  0  0  0  0  0  0  0  0  0
  -12.2418  -20.5255    0.0000 C   0  0  0  0  0  0  0  0  0  0  0  0
  -12.7548  -19.1160    0.0000 C   0  0  0  0  0  0  0  0  0  0  0  0
  -11.7907  -17.9669    0.0000 C   0  0  0  0  0  0  0  0  0  0  0  0
  -12.3037  -16.5574    0.0000 C   0  0  0  0  0  0  0  0  0  0  0  0
  -13.7809  -16.2969    0.0000 C   0  0  0  0  0  0  0  0  0  0  0  0
  -14.2939  -14.8873    0.0000 C   0  0  0  0  0  0  0  0  0  0  0  0
  -13.3297  -13.7383    0.0000 C   0  0  0  0  0  0  0  0  0  0  0  0
  -11.8525  -13.9987    0.0000 C   0  0  0  0  0  0  0  0  0  0  0  0
  -11.3395  -15.4083    0.0000 C   0  0  0  0  0  0  0  0  0  0  0  0
   -4.4665  -16.0364    0.0000 O   0  0  0  0  0  0  0  0  0  0  0  0
   -5.9437  -16.2969    0.0000 C   0  0  0  0  0  0  0  0  0  0  0  0
   -6.9079  -15.1478    0.0000 C   0  0  0  0  0  0  0  0  0  0  0  0
   -8.3851  -15.4083    0.0000 C   0  0  0  0  0  0  0  0  0  0  0  0
   -8.8981  -16.8178    0.0000 C   0  0  0  0  0  0  0  0  0  0  0  0
  -10.3753  -17.0783    0.0000 C   0  0  0  0  0  0  0  0  0  0  0  0
  -10.9855  -15.7080    0.0000 C   0  0  0  0  0  0  0  0  0  0  0  0
  -10.4800  -18.5746    0.0000 C   0  0  0  0  0  0  0  0  0  0  0  0
  -11.8525  -17.3388    0.0000 C   0  0  0  0  0  0  0  0  0  0  0  0
  -12.8167  -16.1897    0.0000 C   0  0  0  0  0  0  0  0  0  0  0  0
  -14.2939  -16.4502    0.0000 C   0  0  0  0  0  0  0  0  0  0  0  0
  -14.8070  -17.8597    0.0000 C   0  0  0  0  0  0  0  0  0  0  0  0
  -16.2842  -18.1202    0.0000 O   0  0  0  0  0  0  0  0  0  0  0  0
  -17.2483  -16.9711    0.0000 C   0  0  0  0  0  0  0  0  0  0  0  0
  -18.7256  -17.2316    0.0000 C   0  0  0  0  0  0  0  0  0  0  0  0
  -17.0916  -15.4793    0.0000 O   0  0  0  0  0  0  0  0  0  0  0  0
  -13.8428  -19.0088    0.0000 C   0  0  0  0  0  0  0  0  0  0  0  0
  -14.3558  -20.4183    0.0000 C   0  0  0  0  0  0  0  0  0  0  0  0
  -13.3916  -21.5674    0.0000 C   0  0  0  0  0  0  0  0  0  0  0  0
  -13.9047  -22.9769    0.0000 C   0  0  0  0  0  0  0  0  0  0  0  0
  -12.9405  -24.1260    0.0000 P   0  0  0  0  0  0  0  0  0  0  0  0
  -11.9763  -22.9769    0.0000 O   0  0  0  0  0  0  0  0  0  0  0  0
  -14.2395  -24.8760    0.0000 O   0  0  0  0  0  0  0  0  0  0  0  0
  -14.2395  -26.3760    0.0000 C   0  0  0  0  0  0  0  0  0  0  0  0
  -15.5385  -27.1260    0.0000 C   0  0  0  0  0  0  0  0  0  0  0  0
  -15.5385  -28.6260    0.0000 C   0  0  0  0  0  0  0  0  0  0  0  0
  -14.2395  -29.3760    0.0000 C   0  0  0  0  0  0  0  0  0  0  0  0
  -12.9405  -28.6260    0.0000 C   0  0  0  0  0  0  0  0  0  0  0  0
  -12.9405  -27.1260    0.0000 C   0  0  0  0  0  0  0  0  0  0  0  0
  -11.6414  -26.3760    0.0000 C   0  0  0  0  0  0  0  0  0  0  0  0
  -10.3424  -27.1260    0.0000 C   0  0  0  0  0  0  0  0  0  0  0  0
   -9.0434  -26.3760    0.0000 C   0  0  0  0  0  0  0  0  0  0  0  0
   -9.0434  -24.8760    0.0000 C   0  0  0  0  0  0  0  0  0  0  0  0
  -10.3424  -24.1260    0.0000 C   0  0  0  0  0  0  0  0  0  0  0  0
  -11.6414  -24.8760    0.0000 C   0  0  0  0  0  0  0  0  0  0  0  0
  -12.3656  -18.7483    0.0000 C   0  0  0  0  0  0  0  0  0  0  0  0
   -7.9339  -17.9669    0.0000 C   0  0  0  0  0  0  0  0  0  0  0  0
   -6.4567  -17.7064    0.0000 C   0  0  0  0  0  0  0  0  0  0  0  0
   -5.4925  -18.8555    0.0000 C   0  0  0  0  0  0  0  0  0  0  0  0
   -6.0056  -20.2650    0.0000 C   0  0  0  0  0  0  0  0  0  0  0  0
   -5.0414  -21.4141    0.0000 C   0  0  0  0  0  0  0  0  0  0  0  0
   -5.5544  -22.8236    0.0000 P   0  0  0  0  0  0  0  0  0  0  0  0
   -6.8535  -22.0736    0.0000 O   0  0  0  0  0  0  0  0  0  0  0  0
   -4.0772  -23.0841    0.0000 O   0  0  0  0  0  0  0  0  0  0  0  0
   -3.5642  -24.4936    0.0000 C   0  0  0  0  0  0  0  0  0  0  0  0
   -2.0870  -24.7541    0.0000 C   0  0  0  0  0  0  0  0  0  0  0  0
   -1.5739  -26.1637    0.0000 C   0  0  0  0  0  0  0  0  0  0  0  0
   -2.5381  -27.3127    0.0000 C   0  0  0  0  0  0  0  0  0  0  0  0
   -4.0153  -27.0522    0.0000 C   0  0  0  0  0  0  0  0  0  0  0  0
   -4.5284  -25.6427    0.0000 C   0  0  0  0  0  0  0  0  0  0  0  0
   -6.0056  -25.3822    0.0000 C   0  0  0  0  0  0  0  0  0  0  0  0
   -6.9697  -26.5313    0.0000 C   0  0  0  0  0  0  0  0  0  0  0  0
   -8.4470  -26.2708    0.0000 C   0  0  0  0  0  0  0  0  0  0  0  0
   -8.9600  -24.8613    0.0000 C   0  0  0  0  0  0  0  0  0  0  0  0
   -7.9958  -23.7122    0.0000 C   0  0  0  0  0  0  0  0  0  0  0  0
   -6.5186  -23.9727    0.0000 C   0  0  0  0  0  0  0  0  0  0  0  0
   -7.0330  -12.1236    0.0000 C   0  0  0  0  0  0  0  0  0  0  0  0
   -8.1821  -13.0878    0.0000 C   0  0  0  0  0  0  0  0  0  0  0  0
   -9.5916  -12.5747    0.0000 C   0  0  0  0  0  0  0  0  0  0  0  0
  -10.7407  -13.5389    0.0000 C   0  0  0  0  0  0  0  0  0  0  0  0
  -12.1502  -13.0259    0.0000 P   0  0  0  0  0  0  0  0  0  0  0  0
  -11.4002  -11.7269    0.0000 O   0  0  0  0  0  0  0  0  0  0  0  0
  -12.4107  -14.5031    0.0000 O   0  0  0  0  0  0  0  0  0  0  0  0
  -13.8202  -15.0161    0.0000 C   0  0  0  0  0  0  0  0  0  0  0  0
  -14.0807  -16.4934    0.0000 C   0  0  0  0  0  0  0  0  0  0  0  0
  -15.4902  -17.0064    0.0000 C   0  0  0  0  0  0  0  0  0  0  0  0
  -16.6393  -16.0422    0.0000 C   0  0  0  0  0  0  0  0  0  0  0  0
  -16.3788  -14.5650    0.0000 C   0  0  0  0  0  0  0  0  0  0  0  0
  -14.9693  -14.0520    0.0000 C   0  0  0  0  0  0  0  0  0  0  0  0
  -14.7088  -12.5747    0.0000 C   0  0  0  0  0  0  0  0  0  0  0  0
  -15.8579  -11.6106    0.0000 C   0  0  0  0  0  0  0  0  0  0  0  0
  -15.5974  -10.1334    0.0000 C   0  0  0  0  0  0  0  0  0  0  0  0
  -14.1879   -9.6203    0.0000 C   0  0  0  0  0  0  0  0  0  0  0  0
  -13.0388  -10.5845    0.0000 C   0  0  0  0  0  0  0  0  0  0  0  0
  -13.2993  -12.0617    0.0000 C   0  0  0  0  0  0  0  0  0  0  0  0
   -7.2935  -10.6464    0.0000 C   0  0  0  0  0  0  0  0  0  0  0  0
   -5.5163   -5.7636    0.0000 C   0  0  0  0  0  0  0  0  0  0  0  0
   -5.7768   -4.2864    0.0000 C   0  0  0  0  0  0  0  0  0  0  0  0
   -4.6277   -3.3222    0.0000 C   0  0  0  0  0  0  0  0  0  0  0  0
   -4.8882   -1.8450    0.0000 C   0  0  0  0  0  0  0  0  0  0  0  0
   -3.7391   -0.8808    0.0000 C   0  0  0  0  0  0  0  0  0  0  0  0
   -3.9996    0.5964    0.0000 P   0  0  0  0  0  0  0  0  0  0  0  0
   -5.4091    0.0834    0.0000 O   0  0  0  0  0  0  0  0  0  0  0  0
   -2.4996    0.5964    0.0000 O   0  0  0  0  0  0  0  0  0  0  0  0
   -1.7496    1.8954    0.0000 C   0  0  0  0  0  0  0  0  0  0  0  0
   -0.2496    1.8954    0.0000 C   0  0  0  0  0  0  0  0  0  0  0  0
    0.5004    3.1945    0.0000 C   0  0  0  0  0  0  0  0  0  0  0  0
   -0.2496    4.4935    0.0000 C   0  0  0  0  0  0  0  0  0  0  0  0
   -1.7496    4.4935    0.0000 C   0  0  0  0  0  0  0  0  0  0  0  0
   -2.4996    3.1945    0.0000 C   0  0  0  0  0  0  0  0  0  0  0  0
   -3.9996    3.1945    0.0000 C   0  0  0  0  0  0  0  0  0  0  0  0
   -4.7496    4.4935    0.0000 C   0  0  0  0  0  0  0  0  0  0  0  0
   -6.2496    4.4935    0.0000 C   0  0  0  0  0  0  0  0  0  0  0  0
   -6.9996    3.1945    0.0000 C   0  0  0  0  0  0  0  0  0  0  0  0
   -6.2496    1.8954    0.0000 C   0  0  0  0  0  0  0  0  0  0  0  0
   -4.7496    1.8954    0.0000 C   0  0  0  0  0  0  0  0  0  0  0  0
  1  2  1  0
  2  3  2  0
  2  4  1  0
  4  5  1  0
  5  6  2  0
  6  7  1  0
  7  8  2  0
  8  9  1  0
  9 10  1  0
  9 11  1  0
  9 12  1  0
 12 13  2  0
 13 14  1  0
 14 15  2  0
 15 16  1  0
 16 17  1  0
 17 18  1  0
 18 19  1  0
 19 20  2  0
 20 21  1  0
 21 22  2  0
 22 23  1  0
 23 24  1  0
 23 25  1  0
 23 26  1  0
 26 27  2  0
 27 28  1  0
 28 29  2  0
 29 30  1  0
 30 31  1  0
 31 32  1  0
 31 33  2  0
 29 34  1  0
 34 35  1  0
 35 36  1  0
 36 37  1  0
 37 38  1  0
 38 39  2  0
 38 40  1  0
 40 41  1  0
 41 42  2  0
 42 43  1  0
 43 44  2  0
 44 45  1  0
 45 46  2  0
 46 47  1  0
 47 48  2  0
 48 49  1  0
 49 50  2  0
 50 51  1  0
 51 52  2  0
 34 53  2  0
 22 54  1  0
 54 55  2  0
 55 56  1  0
 56 57  1  0
 57 58  1  0
 58 59  1  0
 59 60  2  0
 59 61  1  0
 61 62  1  0
 62 63  2  0
 63 64  1  0
 64 65  2  0
 65 66  1  0
 66 67  2  0
 67 68  1  0
 68 69  2  0
 69 70  1  0
 70 71  2  0
 71 72  1  0
 72 73  2  0
 17 74  1  0
 74 75  1  0
 75 76  2  0
 76 77  1  0
 77 78  2  0
 78 79  1  0
 79 80  1  0
 79 81  1  0
 79 82  1  0
 82 83  2  0
 83 84  1  0
 84 85  2  0
 85 86  1  0
 86 87  1  0
 87 88  1  0
 87 89  2  0
 85 90  1  0
 90 91  1  0
 91 92  1  0
 92 93  1  0
 93 94  1  0
 94 95  2  0
 94 96  1  0
 96 97  1  0
 97 98  2  0
 98 99  1  0
 99100  2  0
100101  1  0
101102  2  0
102103  1  0
103104  2  0
104105  1  0
105106  2  0
106107  1  0
107108  2  0
 90109  2  0
 78110  1  0
110111  2  0
111112  1  0
112113  1  0
113114  1  0
114115  1  0
115116  2  0
115117  1  0
117118  1  0
118119  2  0
119120  1  0
120121  2  0
121122  1  0
122123  2  0
123124  1  0
124125  2  0
125126  1  0
126127  2  0
127128  1  0
128129  2  0
 17130  1  0
130131  1  0
131132  2  0
132133  1  0
133134  2  0
134135  1  0
135136  1  0
135137  1  0
135138  1  0
138139  2  0
139140  1  0
140141  2  0
141142  1  0
142143  1  0
143144  1  0
143145  2  0
141146  1  0
146147  1  0
147148  1  0
148149  1  0
149150  1  0
150151  2  0
150152  1  0
152153  1  0
153154  2  0
154155  1  0
155156  2  0
156157  1  0
157158  2  0
158159  1  0
159160  2  0
160161  1  0
161162  2  0
162163  1  0
163164  2  0
146165  2  0
134166  1  0
166167  2  0
167168  1  0
168169  1  0
169170  1  0
170171  1  0
171172  2  0
171173  1  0
173174  1  0
174175  2  0
175176  1  0
176177  2  0
177178  1  0
178179  2  0
179180  1  0
180181  2  0
181182  1  0
182183  2  0
183184  1  0
184185  2  0
 15186  1  0
186187  1  0
187188  1  0
188189  1  0
189190  1  0
190191  2  0
190192  1  0
192193  1  0
193194  2  0
194195  1  0
195196  2  0
196197  1  0
197198  2  0
198199  1  0
199200  2  0
200201  1  0
201202  2  0
202203  1  0
203204  2  0
186205  2  0
  8206  1  0
206207  2  0
207208  1  0
208209  1  0
209210  1  0
210211  1  0
211212  2  0
211213  1  0
213214  1  0
214215  2  0
215216  1  0
216217  2  0
217218  1  0
218219  2  0
219220  1  0
220221  2  0
221222  1  0
222223  2  0
223224  1  0
224225  2  0
207  5  1  0
225211  1  0
205 12  1  0
219214  1  0
225220  1  0
 55 19  1  0
 73 59  1  0
111 75  1  0
129115  1  0
167131  1  0
185171  1  0
204190  1  0
 53 26  1  0
 67 62  1  0
 73 68  1  0
109 82  1  0
123118  1  0
129124  1  0
165138  1  0
179174  1  0
185180  1  0
198193  1  0
204199  1  0
 52 38  1  0
108 94  1  0
164150  1  0
 46 41  1  0
 52 47  1  0
102 97  1  0
108103  1  0
158153  1  0
164159  1  0
M  END
>  <Candidate_ID>  (381) 
CAND_R2_381

>  <Candidate_Name>  (381) 
TetraDSi-OH-acetyl-all

>  <Parent_Seed_ID>  (381) 
TRAIN_103

>  <Parent_Name>  (381) 
TetraDSi

>  <Transformation_Code>  (381) 
OH_acetyl_all

>  <Design_Family>  (381) 
P-Si

>  <Preparation_Type>  (381) 
Additive

>  <Synthesis_Level>  (381) 
C

>  <Parent_Tanimoto_r3>  (381) 
0.7777777777777778

>  <Max_Train_Tanimoto_r3>  (381) 
0.7777777777777778

>  <Risk_Flags>  (381) 
high molecular weight; high DOPO count; exploratory only; excluded from formal screening

$$$$
CAND_R2_382 | TetraDSi-OH-allyl
     RDKit          2D

216247  0  0  0  0  0  0  0  0999 V2000
  -15.0725   -3.3967    0.0000 C   0  0  0  0  0  0  0  0  0  0  0  0
  -13.5953   -3.1362    0.0000 C   0  0  0  0  0  0  0  0  0  0  0  0
  -12.6311   -4.2853    0.0000 C   0  0  0  0  0  0  0  0  0  0  0  0
  -11.1539   -4.0248    0.0000 O   0  0  0  0  0  0  0  0  0  0  0  0
  -10.1897   -5.1739    0.0000 C   0  0  0  0  0  0  0  0  0  0  0  0
   -8.7125   -4.9134    0.0000 C   0  0  0  0  0  0  0  0  0  0  0  0
   -7.7483   -6.0625    0.0000 C   0  0  0  0  0  0  0  0  0  0  0  0
   -8.2613   -7.4720    0.0000 C   0  0  0  0  0  0  0  0  0  0  0  0
   -7.2971   -8.6211    0.0000 C   0  0  0  0  0  0  0  0  0  0  0  0
   -8.4462   -9.5852    0.0000 C   0  0  0  0  0  0  0  0  0  0  0  0
   -6.4155   -7.4075    0.0000 C   0  0  0  0  0  0  0  0  0  0  0  0
   -6.3330   -9.7701    0.0000 C   0  0  0  0  0  0  0  0  0  0  0  0
   -6.8460  -11.1797    0.0000 C   0  0  0  0  0  0  0  0  0  0  0  0
   -5.8818  -12.3287    0.0000 C   0  0  0  0  0  0  0  0  0  0  0  0
   -4.4046  -12.0683    0.0000 C   0  0  0  0  0  0  0  0  0  0  0  0
   -3.4404  -13.2173    0.0000 O   0  0  0  0  0  0  0  0  0  0  0  0
   -3.9534  -14.6269    0.0000 Si  0  0  0  0  0  4  0  0  0  0  0  0
   -2.5439  -15.1399    0.0000 O   0  0  0  0  0  0  0  0  0  0  0  0
   -1.3948  -14.1757    0.0000 C   0  0  0  0  0  0  0  0  0  0  0  0
   -1.6553  -12.6985    0.0000 C   0  0  0  0  0  0  0  0  0  0  0  0
   -0.5062  -11.7343    0.0000 C   0  0  0  0  0  0  0  0  0  0  0  0
    0.9033  -12.2474    0.0000 C   0  0  0  0  0  0  0  0  0  0  0  0
    2.0524  -11.2832    0.0000 C   0  0  0  0  0  0  0  0  0  0  0  0
    1.0882  -10.1341    0.0000 C   0  0  0  0  0  0  0  0  0  0  0  0
    3.0165  -12.4322    0.0000 C   0  0  0  0  0  0  0  0  0  0  0  0
    3.2014  -10.3190    0.0000 C   0  0  0  0  0  0  0  0  0  0  0  0
    2.9410   -8.8418    0.0000 C   0  0  0  0  0  0  0  0  0  0  0  0
    4.0900   -7.8776    0.0000 C   0  0  0  0  0  0  0  0  0  0  0  0
    5.4996   -8.3906    0.0000 C   0  0  0  0  0  0  0  0  0  0  0  0
    6.6486   -7.4264    0.0000 O   0  0  0  0  0  0  0  0  0  0  0  0
    5.7600   -9.8678    0.0000 C   0  0  0  0  0  0  0  0  0  0  0  0
    7.1696  -10.3809    0.0000 C   0  0  0  0  0  0  0  0  0  0  0  0
    7.4300  -11.8581    0.0000 C   0  0  0  0  0  0  0  0  0  0  0  0
    8.8396  -12.3711    0.0000 C   0  0  0  0  0  0  0  0  0  0  0  0
    9.1001  -13.8483    0.0000 P   0  0  0  0  0  0  0  0  0  0  0  0
    7.6001  -13.8483    0.0000 O   0  0  0  0  0  0  0  0  0  0  0  0
   10.5096  -13.3353    0.0000 O   0  0  0  0  0  0  0  0  0  0  0  0
   11.6587  -14.2995    0.0000 C   0  0  0  0  0  0  0  0  0  0  0  0
   13.0682  -13.7864    0.0000 C   0  0  0  0  0  0  0  0  0  0  0  0
   14.2173  -14.7506    0.0000 C   0  0  0  0  0  0  0  0  0  0  0  0
   13.9568  -16.2278    0.0000 C   0  0  0  0  0  0  0  0  0  0  0  0
   12.5473  -16.7409    0.0000 C   0  0  0  0  0  0  0  0  0  0  0  0
   11.3982  -15.7767    0.0000 C   0  0  0  0  0  0  0  0  0  0  0  0
    9.9887  -16.2897    0.0000 C   0  0  0  0  0  0  0  0  0  0  0  0
    9.7282  -17.7669    0.0000 C   0  0  0  0  0  0  0  0  0  0  0  0
    8.3186  -18.2800    0.0000 C   0  0  0  0  0  0  0  0  0  0  0  0
    7.1696  -17.3158    0.0000 C   0  0  0  0  0  0  0  0  0  0  0  0
    7.4300  -15.8386    0.0000 C   0  0  0  0  0  0  0  0  0  0  0  0
    8.8396  -15.3255    0.0000 C   0  0  0  0  0  0  0  0  0  0  0  0
    4.6110  -10.8320    0.0000 C   0  0  0  0  0  0  0  0  0  0  0  0
    1.1638  -13.7246    0.0000 C   0  0  0  0  0  0  0  0  0  0  0  0
    0.0147  -14.6887    0.0000 C   0  0  0  0  0  0  0  0  0  0  0  0
    0.2752  -16.1660    0.0000 C   0  0  0  0  0  0  0  0  0  0  0  0
   -0.8739  -17.1301    0.0000 C   0  0  0  0  0  0  0  0  0  0  0  0
   -2.2834  -16.6171    0.0000 C   0  0  0  0  0  0  0  0  0  0  0  0
   -2.5439  -15.1399    0.0000 P   0  0  0  0  0  0  0  0  0  0  0  0
   -3.7874  -15.9788    0.0000 O   0  0  0  0  0  0  0  0  0  0  0  0
   -1.0439  -15.1399    0.0000 O   0  0  0  0  0  0  0  0  0  0  0  0
   -0.2939  -13.8409    0.0000 C   0  0  0  0  0  0  0  0  0  0  0  0
    1.2061  -13.8409    0.0000 C   0  0  0  0  0  0  0  0  0  0  0  0
    1.9561  -12.5418    0.0000 C   0  0  0  0  0  0  0  0  0  0  0  0
    1.2061  -11.2428    0.0000 C   0  0  0  0  0  0  0  0  0  0  0  0
   -0.2939  -11.2428    0.0000 C   0  0  0  0  0  0  0  0  0  0  0  0
   -1.0439  -12.5418    0.0000 C   0  0  0  0  0  0  0  0  0  0  0  0
   -2.5439  -12.5418    0.0000 C   0  0  0  0  0  0  0  0  0  0  0  0
   -3.2939  -11.2428    0.0000 C   0  0  0  0  0  0  0  0  0  0  0  0
   -4.7939  -11.2428    0.0000 C   0  0  0  0  0  0  0  0  0  0  0  0
   -5.5439  -12.5418    0.0000 C   0  0  0  0  0  0  0  0  0  0  0  0
   -4.7939  -13.8409    0.0000 C   0  0  0  0  0  0  0  0  0  0  0  0
   -3.2939  -13.8409    0.0000 C   0  0  0  0  0  0  0  0  0  0  0  0
   -5.3630  -14.1138    0.0000 O   0  0  0  0  0  0  0  0  0  0  0  0
   -5.6235  -12.6366    0.0000 C   0  0  0  0  0  0  0  0  0  0  0  0
   -4.4744  -11.6724    0.0000 C   0  0  0  0  0  0  0  0  0  0  0  0
   -4.7349  -10.1952    0.0000 C   0  0  0  0  0  0  0  0  0  0  0  0
   -6.1444   -9.6822    0.0000 C   0  0  0  0  0  0  0  0  0  0  0  0
   -6.4049   -8.2050    0.0000 C   0  0  0  0  0  0  0  0  0  0  0  0
   -7.9012   -8.1003    0.0000 C   0  0  0  0  0  0  0  0  0  0  0  0
   -4.9277   -7.9445    0.0000 C   0  0  0  0  0  0  0  0  0  0  0  0
   -6.6653   -6.7278    0.0000 C   0  0  0  0  0  0  0  0  0  0  0  0
   -5.5163   -5.7636    0.0000 C   0  0  0  0  0  0  0  0  0  0  0  0
   -5.7768   -4.2864    0.0000 C   0  0  0  0  0  0  0  0  0  0  0  0
   -7.1863   -3.7734    0.0000 C   0  0  0  0  0  0  0  0  0  0  0  0
   -7.4468   -2.2961    0.0000 O   0  0  0  0  0  0  0  0  0  0  0  0
   -8.3354   -4.7375    0.0000 C   0  0  0  0  0  0  0  0  0  0  0  0
   -9.7449   -4.2245    0.0000 C   0  0  0  0  0  0  0  0  0  0  0  0
  -10.0054   -2.7473    0.0000 C   0  0  0  0  0  0  0  0  0  0  0  0
  -11.4149   -2.2343    0.0000 C   0  0  0  0  0  0  0  0  0  0  0  0
  -11.6754   -0.7571    0.0000 P   0  0  0  0  0  0  0  0  0  0  0  0
  -10.1754   -0.7571    0.0000 O   0  0  0  0  0  0  0  0  0  0  0  0
  -13.0849   -1.2701    0.0000 O   0  0  0  0  0  0  0  0  0  0  0  0
  -14.2340   -0.3059    0.0000 C   0  0  0  0  0  0  0  0  0  0  0  0
  -15.6435   -0.8189    0.0000 C   0  0  0  0  0  0  0  0  0  0  0  0
  -16.7926    0.1452    0.0000 C   0  0  0  0  0  0  0  0  0  0  0  0
  -16.5321    1.6225    0.0000 C   0  0  0  0  0  0  0  0  0  0  0  0
  -15.1226    2.1355    0.0000 C   0  0  0  0  0  0  0  0  0  0  0  0
  -13.9735    1.1713    0.0000 C   0  0  0  0  0  0  0  0  0  0  0  0
  -12.5640    1.6843    0.0000 C   0  0  0  0  0  0  0  0  0  0  0  0
  -12.3035    3.1616    0.0000 C   0  0  0  0  0  0  0  0  0  0  0  0
  -10.8940    3.6746    0.0000 C   0  0  0  0  0  0  0  0  0  0  0  0
   -9.7449    2.7104    0.0000 C   0  0  0  0  0  0  0  0  0  0  0  0
  -10.0054    1.2332    0.0000 C   0  0  0  0  0  0  0  0  0  0  0  0
  -11.4149    0.7202    0.0000 C   0  0  0  0  0  0  0  0  0  0  0  0
   -8.0749   -6.2147    0.0000 C   0  0  0  0  0  0  0  0  0  0  0  0
   -7.2935  -10.6464    0.0000 C   0  0  0  0  0  0  0  0  0  0  0  0
   -7.0330  -12.1236    0.0000 C   0  0  0  0  0  0  0  0  0  0  0  0
   -8.1821  -13.0878    0.0000 C   0  0  0  0  0  0  0  0  0  0  0  0
   -9.5916  -12.5747    0.0000 C   0  0  0  0  0  0  0  0  0  0  0  0
  -10.7407  -13.5389    0.0000 C   0  0  0  0  0  0  0  0  0  0  0  0
  -12.1502  -13.0259    0.0000 P   0  0  0  0  0  0  0  0  0  0  0  0
  -11.4002  -11.7269    0.0000 O   0  0  0  0  0  0  0  0  0  0  0  0
  -12.4107  -14.5031    0.0000 O   0  0  0  0  0  0  0  0  0  0  0  0
  -13.8202  -15.0161    0.0000 C   0  0  0  0  0  0  0  0  0  0  0  0
  -14.0807  -16.4934    0.0000 C   0  0  0  0  0  0  0  0  0  0  0  0
  -15.4902  -17.0064    0.0000 C   0  0  0  0  0  0  0  0  0  0  0  0
  -16.6393  -16.0422    0.0000 C   0  0  0  0  0  0  0  0  0  0  0  0
  -16.3788  -14.5650    0.0000 C   0  0  0  0  0  0  0  0  0  0  0  0
  -14.9693  -14.0520    0.0000 C   0  0  0  0  0  0  0  0  0  0  0  0
  -14.7088  -12.5747    0.0000 C   0  0  0  0  0  0  0  0  0  0  0  0
  -15.8579  -11.6106    0.0000 C   0  0  0  0  0  0  0  0  0  0  0  0
  -15.5974  -10.1334    0.0000 C   0  0  0  0  0  0  0  0  0  0  0  0
  -14.1879   -9.6203    0.0000 C   0  0  0  0  0  0  0  0  0  0  0  0
  -13.0388  -10.5845    0.0000 C   0  0  0  0  0  0  0  0  0  0  0  0
  -13.2993  -12.0617    0.0000 C   0  0  0  0  0  0  0  0  0  0  0  0
   -4.4665  -16.0364    0.0000 O   0  0  0  0  0  0  0  0  0  0  0  0
   -5.9437  -16.2969    0.0000 C   0  0  0  0  0  0  0  0  0  0  0  0
   -6.9079  -15.1478    0.0000 C   0  0  0  0  0  0  0  0  0  0  0  0
   -8.3851  -15.4083    0.0000 C   0  0  0  0  0  0  0  0  0  0  0  0
   -8.8981  -16.8178    0.0000 C   0  0  0  0  0  0  0  0  0  0  0  0
  -10.3753  -17.0783    0.0000 C   0  0  0  0  0  0  0  0  0  0  0  0
  -10.6358  -15.6011    0.0000 C   0  0  0  0  0  0  0  0  0  0  0  0
  -10.1148  -18.5555    0.0000 C   0  0  0  0  0  0  0  0  0  0  0  0
  -11.8525  -17.3388    0.0000 C   0  0  0  0  0  0  0  0  0  0  0  0
  -12.8167  -16.1897    0.0000 C   0  0  0  0  0  0  0  0  0  0  0  0
  -14.2939  -16.4502    0.0000 C   0  0  0  0  0  0  0  0  0  0  0  0
  -14.8070  -17.8597    0.0000 C   0  0  0  0  0  0  0  0  0  0  0  0
  -16.2842  -18.1202    0.0000 O   0  0  0  0  0  0  0  0  0  0  0  0
  -13.8428  -19.0088    0.0000 C   0  0  0  0  0  0  0  0  0  0  0  0
  -14.3558  -20.4183    0.0000 C   0  0  0  0  0  0  0  0  0  0  0  0
  -13.3916  -21.5674    0.0000 C   0  0  0  0  0  0  0  0  0  0  0  0
  -13.9047  -22.9769    0.0000 C   0  0  0  0  0  0  0  0  0  0  0  0
  -12.9405  -24.1260    0.0000 P   0  0  0  0  0  0  0  0  0  0  0  0
  -11.9763  -22.9769    0.0000 O   0  0  0  0  0  0  0  0  0  0  0  0
  -14.2395  -24.8760    0.0000 O   0  0  0  0  0  0  0  0  0  0  0  0
  -14.2395  -26.3760    0.0000 C   0  0  0  0  0  0  0  0  0  0  0  0
  -15.5385  -27.1260    0.0000 C   0  0  0  0  0  0  0  0  0  0  0  0
  -15.5385  -28.6260    0.0000 C   0  0  0  0  0  0  0  0  0  0  0  0
  -14.2395  -29.3760    0.0000 C   0  0  0  0  0  0  0  0  0  0  0  0
  -12.9405  -28.6260    0.0000 C   0  0  0  0  0  0  0  0  0  0  0  0
  -12.9405  -27.1260    0.0000 C   0  0  0  0  0  0  0  0  0  0  0  0
  -11.6414  -26.3760    0.0000 C   0  0  0  0  0  0  0  0  0  0  0  0
  -10.3424  -27.1260    0.0000 C   0  0  0  0  0  0  0  0  0  0  0  0
   -9.0434  -26.3760    0.0000 C   0  0  0  0  0  0  0  0  0  0  0  0
   -9.0434  -24.8760    0.0000 C   0  0  0  0  0  0  0  0  0  0  0  0
  -10.3424  -24.1260    0.0000 C   0  0  0  0  0  0  0  0  0  0  0  0
  -11.6414  -24.8760    0.0000 C   0  0  0  0  0  0  0  0  0  0  0  0
  -12.3656  -18.7483    0.0000 C   0  0  0  0  0  0  0  0  0  0  0  0
   -7.9339  -17.9669    0.0000 C   0  0  0  0  0  0  0  0  0  0  0  0
   -6.4567  -17.7064    0.0000 C   0  0  0  0  0  0  0  0  0  0  0  0
   -5.4925  -18.8555    0.0000 C   0  0  0  0  0  0  0  0  0  0  0  0
   -6.0056  -20.2650    0.0000 C   0  0  0  0  0  0  0  0  0  0  0  0
   -5.0414  -21.4141    0.0000 C   0  0  0  0  0  0  0  0  0  0  0  0
   -5.5544  -22.8236    0.0000 P   0  0  0  0  0  0  0  0  0  0  0  0
   -6.8535  -22.0736    0.0000 O   0  0  0  0  0  0  0  0  0  0  0  0
   -4.0772  -23.0841    0.0000 O   0  0  0  0  0  0  0  0  0  0  0  0
   -3.5642  -24.4936    0.0000 C   0  0  0  0  0  0  0  0  0  0  0  0
   -2.0870  -24.7541    0.0000 C   0  0  0  0  0  0  0  0  0  0  0  0
   -1.5739  -26.1637    0.0000 C   0  0  0  0  0  0  0  0  0  0  0  0
   -2.5381  -27.3127    0.0000 C   0  0  0  0  0  0  0  0  0  0  0  0
   -4.0153  -27.0522    0.0000 C   0  0  0  0  0  0  0  0  0  0  0  0
   -4.5284  -25.6427    0.0000 C   0  0  0  0  0  0  0  0  0  0  0  0
   -6.0056  -25.3822    0.0000 C   0  0  0  0  0  0  0  0  0  0  0  0
   -6.9697  -26.5313    0.0000 C   0  0  0  0  0  0  0  0  0  0  0  0
   -8.4470  -26.2708    0.0000 C   0  0  0  0  0  0  0  0  0  0  0  0
   -8.9600  -24.8613    0.0000 C   0  0  0  0  0  0  0  0  0  0  0  0
   -7.9958  -23.7122    0.0000 C   0  0  0  0  0  0  0  0  0  0  0  0
   -6.5186  -23.9727    0.0000 C   0  0  0  0  0  0  0  0  0  0  0  0
   -3.8916  -10.6587    0.0000 C   0  0  0  0  0  0  0  0  0  0  0  0
   -2.4144  -10.3983    0.0000 C   0  0  0  0  0  0  0  0  0  0  0  0
   -1.9013   -8.9887    0.0000 C   0  0  0  0  0  0  0  0  0  0  0  0
   -0.4241   -8.7282    0.0000 C   0  0  0  0  0  0  0  0  0  0  0  0
    0.0889   -7.3187    0.0000 P   0  0  0  0  0  0  0  0  0  0  0  0
   -1.3883   -7.0582    0.0000 O   0  0  0  0  0  0  0  0  0  0  0  0
    1.3880   -8.0687    0.0000 O   0  0  0  0  0  0  0  0  0  0  0  0
    2.6870   -7.3187    0.0000 C   0  0  0  0  0  0  0  0  0  0  0  0
    3.9860   -8.0687    0.0000 C   0  0  0  0  0  0  0  0  0  0  0  0
    5.2851   -7.3187    0.0000 C   0  0  0  0  0  0  0  0  0  0  0  0
    5.2851   -5.8187    0.0000 C   0  0  0  0  0  0  0  0  0  0  0  0
    3.9860   -5.0687    0.0000 C   0  0  0  0  0  0  0  0  0  0  0  0
    2.6870   -5.8187    0.0000 C   0  0  0  0  0  0  0  0  0  0  0  0
    1.3880   -5.0687    0.0000 C   0  0  0  0  0  0  0  0  0  0  0  0
    1.3880   -3.5687    0.0000 C   0  0  0  0  0  0  0  0  0  0  0  0
    0.0889   -2.8187    0.0000 C   0  0  0  0  0  0  0  0  0  0  0  0
   -1.2101   -3.5687    0.0000 C   0  0  0  0  0  0  0  0  0  0  0  0
   -1.2101   -5.0687    0.0000 C   0  0  0  0  0  0  0  0  0  0  0  0
    0.0889   -5.8187    0.0000 C   0  0  0  0  0  0  0  0  0  0  0  0
   -4.8557   -9.5097    0.0000 C   0  0  0  0  0  0  0  0  0  0  0  0
   -9.7385   -7.7325    0.0000 C   0  0  0  0  0  0  0  0  0  0  0  0
  -10.7027   -6.5834    0.0000 C   0  0  0  0  0  0  0  0  0  0  0  0
  -12.1799   -6.8439    0.0000 C   0  0  0  0  0  0  0  0  0  0  0  0
  -13.1441   -5.6948    0.0000 C   0  0  0  0  0  0  0  0  0  0  0  0
  -14.6213   -5.9553    0.0000 C   0  0  0  0  0  0  0  0  0  0  0  0
  -15.5855   -4.8062    0.0000 P   0  0  0  0  0  0  0  0  0  0  0  0
  -16.5497   -5.9553    0.0000 O   0  0  0  0  0  0  0  0  0  0  0  0
  -14.2865   -4.0562    0.0000 O   0  0  0  0  0  0  0  0  0  0  0  0
  -14.2865   -2.5562    0.0000 C   0  0  0  0  0  0  0  0  0  0  0  0
  -12.9874   -1.8062    0.0000 C   0  0  0  0  0  0  0  0  0  0  0  0
  -12.9874   -0.3062    0.0000 C   0  0  0  0  0  0  0  0  0  0  0  0
  -14.2865    0.4438    0.0000 C   0  0  0  0  0  0  0  0  0  0  0  0
  -15.5855   -0.3062    0.0000 C   0  0  0  0  0  0  0  0  0  0  0  0
  -15.5855   -1.8062    0.0000 C   0  0  0  0  0  0  0  0  0  0  0  0
  -16.8845   -2.5562    0.0000 C   0  0  0  0  0  0  0  0  0  0  0  0
  -18.1836   -1.8062    0.0000 C   0  0  0  0  0  0  0  0  0  0  0  0
  -19.4826   -2.5562    0.0000 C   0  0  0  0  0  0  0  0  0  0  0  0
  -19.4826   -4.0562    0.0000 C   0  0  0  0  0  0  0  0  0  0  0  0
  -18.1836   -4.8062    0.0000 C   0  0  0  0  0  0  0  0  0  0  0  0
  -16.8845   -4.0562    0.0000 C   0  0  0  0  0  0  0  0  0  0  0  0
  1  2  2  0
  2  3  1  0
  3  4  1  0
  4  5  1  0
  5  6  2  0
  6  7  1  0
  7  8  2  0
  8  9  1  0
  9 10  1  0
  9 11  1  0
  9 12  1  0
 12 13  2  0
 13 14  1  0
 14 15  2  0
 15 16  1  0
 16 17  1  0
 17 18  1  0
 18 19  1  0
 19 20  2  0
 20 21  1  0
 21 22  2  0
 22 23  1  0
 23 24  1  0
 23 25  1  0
 23 26  1  0
 26 27  2  0
 27 28  1  0
 28 29  2  0
 29 30  1  0
 29 31  1  0
 31 32  1  0
 32 33  1  0
 33 34  1  0
 34 35  1  0
 35 36  2  0
 35 37  1  0
 37 38  1  0
 38 39  2  0
 39 40  1  0
 40 41  2  0
 41 42  1  0
 42 43  2  0
 43 44  1  0
 44 45  2  0
 45 46  1  0
 46 47  2  0
 47 48  1  0
 48 49  2  0
 31 50  2  0
 22 51  1  0
 51 52  2  0
 52 53  1  0
 53 54  1  0
 54 55  1  0
 55 56  1  0
 56 57  2  0
 56 58  1  0
 58 59  1  0
 59 60  2  0
 60 61  1  0
 61 62  2  0
 62 63  1  0
 63 64  2  0
 64 65  1  0
 65 66  2  0
 66 67  1  0
 67 68  2  0
 68 69  1  0
 69 70  2  0
 17 71  1  0
 71 72  1  0
 72 73  2  0
 73 74  1  0
 74 75  2  0
 75 76  1  0
 76 77  1  0
 76 78  1  0
 76 79  1  0
 79 80  2  0
 80 81  1  0
 81 82  2  0
 82 83  1  0
 82 84  1  0
 84 85  1  0
 85 86  1  0
 86 87  1  0
 87 88  1  0
 88 89  2  0
 88 90  1  0
 90 91  1  0
 91 92  2  0
 92 93  1  0
 93 94  2  0
 94 95  1  0
 95 96  2  0
 96 97  1  0
 97 98  2  0
 98 99  1  0
 99100  2  0
100101  1  0
101102  2  0
 84103  2  0
 75104  1  0
104105  2  0
105106  1  0
106107  1  0
107108  1  0
108109  1  0
109110  2  0
109111  1  0
111112  1  0
112113  2  0
113114  1  0
114115  2  0
115116  1  0
116117  2  0
117118  1  0
118119  2  0
119120  1  0
120121  2  0
121122  1  0
122123  2  0
 17124  1  0
124125  1  0
125126  2  0
126127  1  0
127128  2  0
128129  1  0
129130  1  0
129131  1  0
129132  1  0
132133  2  0
133134  1  0
134135  2  0
135136  1  0
135137  1  0
137138  1  0
138139  1  0
139140  1  0
140141  1  0
141142  2  0
141143  1  0
143144  1  0
144145  2  0
145146  1  0
146147  2  0
147148  1  0
148149  2  0
149150  1  0
150151  2  0
151152  1  0
152153  2  0
153154  1  0
154155  2  0
137156  2  0
128157  1  0
157158  2  0
158159  1  0
159160  1  0
160161  1  0
161162  1  0
162163  2  0
162164  1  0
164165  1  0
165166  2  0
166167  1  0
167168  2  0
168169  1  0
169170  2  0
170171  1  0
171172  2  0
172173  1  0
173174  2  0
174175  1  0
175176  2  0
 15177  1  0
177178  1  0
178179  1  0
179180  1  0
180181  1  0
181182  2  0
181183  1  0
183184  1  0
184185  2  0
185186  1  0
186187  2  0
187188  1  0
188189  2  0
189190  1  0
190191  2  0
191192  1  0
192193  2  0
193194  1  0
194195  2  0
177196  2  0
  8197  1  0
197198  2  0
198199  1  0
199200  1  0
200201  1  0
201202  1  0
202203  2  0
202204  1  0
204205  1  0
205206  2  0
206207  1  0
207208  2  0
208209  1  0
209210  2  0
210211  1  0
211212  2  0
212213  1  0
213214  2  0
214215  1  0
215216  2  0
198  5  1  0
216202  1  0
196 12  1  0
210205  1  0
216211  1  0
 52 19  1  0
 70 56  1  0
105 72  1  0
123109  1  0
158125  1  0
176162  1  0
195181  1  0
 50 26  1  0
 64 59  1  0
 70 65  1  0
103 79  1  0
117112  1  0
123118  1  0
156132  1  0
170165  1  0
176171  1  0
189184  1  0
195190  1  0
 49 35  1  0
102 88  1  0
155141  1  0
 43 38  1  0
 49 44  1  0
 96 91  1  0
102 97  1  0
149144  1  0
155150  1  0
M  END
>  <Candidate_ID>  (382) 
CAND_R2_382

>  <Candidate_Name>  (382) 
TetraDSi-OH-allyl

>  <Parent_Seed_ID>  (382) 
TRAIN_103

>  <Parent_Name>  (382) 
TetraDSi

>  <Transformation_Code>  (382) 
OH_allyl

>  <Design_Family>  (382) 
P-Si

>  <Preparation_Type>  (382) 
Additive

>  <Synthesis_Level>  (382) 
C

>  <Parent_Tanimoto_r3>  (382) 
0.8888888888888888

>  <Max_Train_Tanimoto_r3>  (382) 
0.8888888888888888

>  <Risk_Flags>  (382) 
high molecular weight; high DOPO count; exploratory only; excluded from formal screening

$$$$
CAND_R2_383 | TetraDSi-OH-allyl-all
     RDKit          2D

225256  0  0  0  0  0  0  0  0999 V2000
  -10.5263    0.2071    0.0000 C   0  0  0  0  0  0  0  0  0  0  0  0
   -9.1168   -0.3059    0.0000 C   0  0  0  0  0  0  0  0  0  0  0  0
   -8.8563   -1.7831    0.0000 C   0  0  0  0  0  0  0  0  0  0  0  0
   -7.4468   -2.2961    0.0000 O   0  0  0  0  0  0  0  0  0  0  0  0
   -7.1863   -3.7734    0.0000 C   0  0  0  0  0  0  0  0  0  0  0  0
   -8.3354   -4.7375    0.0000 C   0  0  0  0  0  0  0  0  0  0  0  0
   -8.0749   -6.2147    0.0000 C   0  0  0  0  0  0  0  0  0  0  0  0
   -6.6653   -6.7278    0.0000 C   0  0  0  0  0  0  0  0  0  0  0  0
   -6.4049   -8.2050    0.0000 C   0  0  0  0  0  0  0  0  0  0  0  0
   -4.9277   -7.9445    0.0000 C   0  0  0  0  0  0  0  0  0  0  0  0
   -7.9012   -8.1003    0.0000 C   0  0  0  0  0  0  0  0  0  0  0  0
   -6.1444   -9.6822    0.0000 C   0  0  0  0  0  0  0  0  0  0  0  0
   -4.7349  -10.1952    0.0000 C   0  0  0  0  0  0  0  0  0  0  0  0
   -4.4744  -11.6724    0.0000 C   0  0  0  0  0  0  0  0  0  0  0  0
   -5.6235  -12.6366    0.0000 C   0  0  0  0  0  0  0  0  0  0  0  0
   -5.3630  -14.1138    0.0000 O   0  0  0  0  0  0  0  0  0  0  0  0
   -3.9534  -14.6269    0.0000 Si  0  0  0  0  0  4  0  0  0  0  0  0
   -2.5439  -15.1399    0.0000 O   0  0  0  0  0  0  0  0  0  0  0  0
   -1.3948  -14.1757    0.0000 C   0  0  0  0  0  0  0  0  0  0  0  0
   -1.6553  -12.6985    0.0000 C   0  0  0  0  0  0  0  0  0  0  0  0
   -0.5062  -11.7343    0.0000 C   0  0  0  0  0  0  0  0  0  0  0  0
    0.9033  -12.2474    0.0000 C   0  0  0  0  0  0  0  0  0  0  0  0
    2.0524  -11.2832    0.0000 C   0  0  0  0  0  0  0  0  0  0  0  0
    1.0882  -10.1341    0.0000 C   0  0  0  0  0  0  0  0  0  0  0  0
    3.0165  -12.4322    0.0000 C   0  0  0  0  0  0  0  0  0  0  0  0
    3.2014  -10.3190    0.0000 C   0  0  0  0  0  0  0  0  0  0  0  0
    2.9410   -8.8418    0.0000 C   0  0  0  0  0  0  0  0  0  0  0  0
    4.0900   -7.8776    0.0000 C   0  0  0  0  0  0  0  0  0  0  0  0
    5.4996   -8.3906    0.0000 C   0  0  0  0  0  0  0  0  0  0  0  0
    6.6486   -7.4264    0.0000 O   0  0  0  0  0  0  0  0  0  0  0  0
    6.3882   -5.9492    0.0000 C   0  0  0  0  0  0  0  0  0  0  0  0
    7.5372   -4.9851    0.0000 C   0  0  0  0  0  0  0  0  0  0  0  0
    7.2768   -3.5078    0.0000 C   0  0  0  0  0  0  0  0  0  0  0  0
    5.7600   -9.8678    0.0000 C   0  0  0  0  0  0  0  0  0  0  0  0
    7.1696  -10.3809    0.0000 C   0  0  0  0  0  0  0  0  0  0  0  0
    7.4300  -11.8581    0.0000 C   0  0  0  0  0  0  0  0  0  0  0  0
    8.8396  -12.3711    0.0000 C   0  0  0  0  0  0  0  0  0  0  0  0
    9.1001  -13.8483    0.0000 P   0  0  0  0  0  0  0  0  0  0  0  0
    7.6001  -13.8483    0.0000 O   0  0  0  0  0  0  0  0  0  0  0  0
   10.5096  -13.3353    0.0000 O   0  0  0  0  0  0  0  0  0  0  0  0
   11.6587  -14.2995    0.0000 C   0  0  0  0  0  0  0  0  0  0  0  0
   13.0682  -13.7864    0.0000 C   0  0  0  0  0  0  0  0  0  0  0  0
   14.2173  -14.7506    0.0000 C   0  0  0  0  0  0  0  0  0  0  0  0
   13.9568  -16.2278    0.0000 C   0  0  0  0  0  0  0  0  0  0  0  0
   12.5473  -16.7409    0.0000 C   0  0  0  0  0  0  0  0  0  0  0  0
   11.3982  -15.7767    0.0000 C   0  0  0  0  0  0  0  0  0  0  0  0
    9.9887  -16.2897    0.0000 C   0  0  0  0  0  0  0  0  0  0  0  0
    9.7282  -17.7669    0.0000 C   0  0  0  0  0  0  0  0  0  0  0  0
    8.3186  -18.2800    0.0000 C   0  0  0  0  0  0  0  0  0  0  0  0
    7.1696  -17.3158    0.0000 C   0  0  0  0  0  0  0  0  0  0  0  0
    7.4300  -15.8386    0.0000 C   0  0  0  0  0  0  0  0  0  0  0  0
    8.8396  -15.3255    0.0000 C   0  0  0  0  0  0  0  0  0  0  0  0
    4.6110  -10.8320    0.0000 C   0  0  0  0  0  0  0  0  0  0  0  0
    1.1638  -13.7246    0.0000 C   0  0  0  0  0  0  0  0  0  0  0  0
    0.0147  -14.6887    0.0000 C   0  0  0  0  0  0  0  0  0  0  0  0
    0.2752  -16.1660    0.0000 C   0  0  0  0  0  0  0  0  0  0  0  0
    1.6847  -16.6790    0.0000 C   0  0  0  0  0  0  0  0  0  0  0  0
    1.9452  -18.1562    0.0000 C   0  0  0  0  0  0  0  0  0  0  0  0
    0.7961  -19.1204    0.0000 P   0  0  0  0  0  0  0  0  0  0  0  0
    0.0461  -17.8213    0.0000 O   0  0  0  0  0  0  0  0  0  0  0  0
    1.9452  -20.0846    0.0000 O   0  0  0  0  0  0  0  0  0  0  0  0
    1.6847  -21.5618    0.0000 C   0  0  0  0  0  0  0  0  0  0  0  0
    2.8338  -22.5260    0.0000 C   0  0  0  0  0  0  0  0  0  0  0  0
    2.5733  -24.0032    0.0000 C   0  0  0  0  0  0  0  0  0  0  0  0
    1.1638  -24.5162    0.0000 C   0  0  0  0  0  0  0  0  0  0  0  0
    0.0147  -23.5520    0.0000 C   0  0  0  0  0  0  0  0  0  0  0  0
    0.2752  -22.0748    0.0000 C   0  0  0  0  0  0  0  0  0  0  0  0
   -0.8739  -21.1106    0.0000 C   0  0  0  0  0  0  0  0  0  0  0  0
   -2.2834  -21.6237    0.0000 C   0  0  0  0  0  0  0  0  0  0  0  0
   -3.4325  -20.6595    0.0000 C   0  0  0  0  0  0  0  0  0  0  0  0
   -3.1720  -19.1823    0.0000 C   0  0  0  0  0  0  0  0  0  0  0  0
   -1.7625  -18.6692    0.0000 C   0  0  0  0  0  0  0  0  0  0  0  0
   -0.6134  -19.6334    0.0000 C   0  0  0  0  0  0  0  0  0  0  0  0
   -3.4404  -13.2173    0.0000 O   0  0  0  0  0  0  0  0  0  0  0  0
   -4.4046  -12.0683    0.0000 C   0  0  0  0  0  0  0  0  0  0  0  0
   -3.8916  -10.6587    0.0000 C   0  0  0  0  0  0  0  0  0  0  0  0
   -4.8557   -9.5097    0.0000 C   0  0  0  0  0  0  0  0  0  0  0  0
   -6.3330   -9.7701    0.0000 C   0  0  0  0  0  0  0  0  0  0  0  0
   -7.2971   -8.6211    0.0000 C   0  0  0  0  0  0  0  0  0  0  0  0
   -8.4462   -9.5852    0.0000 C   0  0  0  0  0  0  0  0  0  0  0  0
   -6.4155   -7.4075    0.0000 C   0  0  0  0  0  0  0  0  0  0  0  0
   -8.2613   -7.4720    0.0000 C   0  0  0  0  0  0  0  0  0  0  0  0
   -7.7483   -6.0625    0.0000 C   0  0  0  0  0  0  0  0  0  0  0  0
   -8.7125   -4.9134    0.0000 C   0  0  0  0  0  0  0  0  0  0  0  0
  -10.1897   -5.1739    0.0000 C   0  0  0  0  0  0  0  0  0  0  0  0
  -11.1539   -4.0248    0.0000 O   0  0  0  0  0  0  0  0  0  0  0  0
  -12.6311   -4.2853    0.0000 C   0  0  0  0  0  0  0  0  0  0  0  0
  -13.5953   -3.1362    0.0000 C   0  0  0  0  0  0  0  0  0  0  0  0
  -15.0725   -3.3967    0.0000 C   0  0  0  0  0  0  0  0  0  0  0  0
  -10.7027   -6.5834    0.0000 C   0  0  0  0  0  0  0  0  0  0  0  0
  -12.1799   -6.8439    0.0000 C   0  0  0  0  0  0  0  0  0  0  0  0
  -13.1441   -5.6948    0.0000 C   0  0  0  0  0  0  0  0  0  0  0  0
  -14.6213   -5.9553    0.0000 C   0  0  0  0  0  0  0  0  0  0  0  0
  -15.5855   -4.8062    0.0000 P   0  0  0  0  0  0  0  0  0  0  0  0
  -16.5497   -5.9553    0.0000 O   0  0  0  0  0  0  0  0  0  0  0  0
  -14.2865   -4.0562    0.0000 O   0  0  0  0  0  0  0  0  0  0  0  0
  -14.2865   -2.5562    0.0000 C   0  0  0  0  0  0  0  0  0  0  0  0
  -12.9874   -1.8062    0.0000 C   0  0  0  0  0  0  0  0  0  0  0  0
  -12.9874   -0.3062    0.0000 C   0  0  0  0  0  0  0  0  0  0  0  0
  -14.2865    0.4438    0.0000 C   0  0  0  0  0  0  0  0  0  0  0  0
  -15.5855   -0.3062    0.0000 C   0  0  0  0  0  0  0  0  0  0  0  0
  -15.5855   -1.8062    0.0000 C   0  0  0  0  0  0  0  0  0  0  0  0
  -16.8845   -2.5562    0.0000 C   0  0  0  0  0  0  0  0  0  0  0  0
  -18.1836   -1.8062    0.0000 C   0  0  0  0  0  0  0  0  0  0  0  0
  -19.4826   -2.5562    0.0000 C   0  0  0  0  0  0  0  0  0  0  0  0
  -19.4826   -4.0562    0.0000 C   0  0  0  0  0  0  0  0  0  0  0  0
  -18.1836   -4.8062    0.0000 C   0  0  0  0  0  0  0  0  0  0  0  0
  -16.8845   -4.0562    0.0000 C   0  0  0  0  0  0  0  0  0  0  0  0
   -9.7385   -7.7325    0.0000 C   0  0  0  0  0  0  0  0  0  0  0  0
   -6.8460  -11.1797    0.0000 C   0  0  0  0  0  0  0  0  0  0  0  0
   -5.8818  -12.3287    0.0000 C   0  0  0  0  0  0  0  0  0  0  0  0
   -6.3948  -13.7383    0.0000 C   0  0  0  0  0  0  0  0  0  0  0  0
   -7.8720  -13.9987    0.0000 C   0  0  0  0  0  0  0  0  0  0  0  0
   -8.3851  -15.4083    0.0000 C   0  0  0  0  0  0  0  0  0  0  0  0
   -9.8623  -15.6688    0.0000 P   0  0  0  0  0  0  0  0  0  0  0  0
   -9.8623  -14.1688    0.0000 O   0  0  0  0  0  0  0  0  0  0  0  0
   -9.3493  -17.0783    0.0000 O   0  0  0  0  0  0  0  0  0  0  0  0
  -10.3134  -18.2274    0.0000 C   0  0  0  0  0  0  0  0  0  0  0  0
   -9.8004  -19.6369    0.0000 C   0  0  0  0  0  0  0  0  0  0  0  0
  -10.7646  -20.7860    0.0000 C   0  0  0  0  0  0  0  0  0  0  0  0
  -12.2418  -20.5255    0.0000 C   0  0  0  0  0  0  0  0  0  0  0  0
  -12.7548  -19.1160    0.0000 C   0  0  0  0  0  0  0  0  0  0  0  0
  -11.7907  -17.9669    0.0000 C   0  0  0  0  0  0  0  0  0  0  0  0
  -12.3037  -16.5574    0.0000 C   0  0  0  0  0  0  0  0  0  0  0  0
  -13.7809  -16.2969    0.0000 C   0  0  0  0  0  0  0  0  0  0  0  0
  -14.2939  -14.8873    0.0000 C   0  0  0  0  0  0  0  0  0  0  0  0
  -13.3297  -13.7383    0.0000 C   0  0  0  0  0  0  0  0  0  0  0  0
  -11.8525  -13.9987    0.0000 C   0  0  0  0  0  0  0  0  0  0  0  0
  -11.3395  -15.4083    0.0000 C   0  0  0  0  0  0  0  0  0  0  0  0
   -4.4665  -16.0364    0.0000 O   0  0  0  0  0  0  0  0  0  0  0  0
   -5.9437  -16.2969    0.0000 C   0  0  0  0  0  0  0  0  0  0  0  0
   -6.9079  -15.1478    0.0000 C   0  0  0  0  0  0  0  0  0  0  0  0
   -8.3851  -15.4083    0.0000 C   0  0  0  0  0  0  0  0  0  0  0  0
   -8.8981  -16.8178    0.0000 C   0  0  0  0  0  0  0  0  0  0  0  0
  -10.3753  -17.0783    0.0000 C   0  0  0  0  0  0  0  0  0  0  0  0
  -10.9855  -15.7080    0.0000 C   0  0  0  0  0  0  0  0  0  0  0  0
  -10.4800  -18.5746    0.0000 C   0  0  0  0  0  0  0  0  0  0  0  0
  -11.8525  -17.3388    0.0000 C   0  0  0  0  0  0  0  0  0  0  0  0
  -12.8167  -16.1897    0.0000 C   0  0  0  0  0  0  0  0  0  0  0  0
  -14.2939  -16.4502    0.0000 C   0  0  0  0  0  0  0  0  0  0  0  0
  -14.8070  -17.8597    0.0000 C   0  0  0  0  0  0  0  0  0  0  0  0
  -16.2842  -18.1202    0.0000 O   0  0  0  0  0  0  0  0  0  0  0  0
  -17.2483  -16.9711    0.0000 C   0  0  0  0  0  0  0  0  0  0  0  0
  -18.7256  -17.2316    0.0000 C   0  0  0  0  0  0  0  0  0  0  0  0
  -19.6897  -16.0825    0.0000 C   0  0  0  0  0  0  0  0  0  0  0  0
  -13.8428  -19.0088    0.0000 C   0  0  0  0  0  0  0  0  0  0  0  0
  -14.3558  -20.4183    0.0000 C   0  0  0  0  0  0  0  0  0  0  0  0
  -13.3916  -21.5674    0.0000 C   0  0  0  0  0  0  0  0  0  0  0  0
  -13.9047  -22.9769    0.0000 C   0  0  0  0  0  0  0  0  0  0  0  0
  -12.9405  -24.1260    0.0000 P   0  0  0  0  0  0  0  0  0  0  0  0
  -11.9763  -22.9769    0.0000 O   0  0  0  0  0  0  0  0  0  0  0  0
  -14.2395  -24.8760    0.0000 O   0  0  0  0  0  0  0  0  0  0  0  0
  -14.2395  -26.3760    0.0000 C   0  0  0  0  0  0  0  0  0  0  0  0
  -15.5385  -27.1260    0.0000 C   0  0  0  0  0  0  0  0  0  0  0  0
  -15.5385  -28.6260    0.0000 C   0  0  0  0  0  0  0  0  0  0  0  0
  -14.2395  -29.3760    0.0000 C   0  0  0  0  0  0  0  0  0  0  0  0
  -12.9405  -28.6260    0.0000 C   0  0  0  0  0  0  0  0  0  0  0  0
  -12.9405  -27.1260    0.0000 C   0  0  0  0  0  0  0  0  0  0  0  0
  -11.6414  -26.3760    0.0000 C   0  0  0  0  0  0  0  0  0  0  0  0
  -10.3424  -27.1260    0.0000 C   0  0  0  0  0  0  0  0  0  0  0  0
   -9.0434  -26.3760    0.0000 C   0  0  0  0  0  0  0  0  0  0  0  0
   -9.0434  -24.8760    0.0000 C   0  0  0  0  0  0  0  0  0  0  0  0
  -10.3424  -24.1260    0.0000 C   0  0  0  0  0  0  0  0  0  0  0  0
  -11.6414  -24.8760    0.0000 C   0  0  0  0  0  0  0  0  0  0  0  0
  -12.3656  -18.7483    0.0000 C   0  0  0  0  0  0  0  0  0  0  0  0
   -7.9339  -17.9669    0.0000 C   0  0  0  0  0  0  0  0  0  0  0  0
   -6.4567  -17.7064    0.0000 C   0  0  0  0  0  0  0  0  0  0  0  0
   -5.4925  -18.8555    0.0000 C   0  0  0  0  0  0  0  0  0  0  0  0
   -6.0056  -20.2650    0.0000 C   0  0  0  0  0  0  0  0  0  0  0  0
   -5.0414  -21.4141    0.0000 C   0  0  0  0  0  0  0  0  0  0  0  0
   -5.5544  -22.8236    0.0000 P   0  0  0  0  0  0  0  0  0  0  0  0
   -6.8535  -22.0736    0.0000 O   0  0  0  0  0  0  0  0  0  0  0  0
   -4.0772  -23.0841    0.0000 O   0  0  0  0  0  0  0  0  0  0  0  0
   -3.5642  -24.4936    0.0000 C   0  0  0  0  0  0  0  0  0  0  0  0
   -2.0870  -24.7541    0.0000 C   0  0  0  0  0  0  0  0  0  0  0  0
   -1.5739  -26.1637    0.0000 C   0  0  0  0  0  0  0  0  0  0  0  0
   -2.5381  -27.3127    0.0000 C   0  0  0  0  0  0  0  0  0  0  0  0
   -4.0153  -27.0522    0.0000 C   0  0  0  0  0  0  0  0  0  0  0  0
   -4.5284  -25.6427    0.0000 C   0  0  0  0  0  0  0  0  0  0  0  0
   -6.0056  -25.3822    0.0000 C   0  0  0  0  0  0  0  0  0  0  0  0
   -6.9697  -26.5313    0.0000 C   0  0  0  0  0  0  0  0  0  0  0  0
   -8.4470  -26.2708    0.0000 C   0  0  0  0  0  0  0  0  0  0  0  0
   -8.9600  -24.8613    0.0000 C   0  0  0  0  0  0  0  0  0  0  0  0
   -7.9958  -23.7122    0.0000 C   0  0  0  0  0  0  0  0  0  0  0  0
   -6.5186  -23.9727    0.0000 C   0  0  0  0  0  0  0  0  0  0  0  0
   -7.0330  -12.1236    0.0000 C   0  0  0  0  0  0  0  0  0  0  0  0
   -8.1821  -13.0878    0.0000 C   0  0  0  0  0  0  0  0  0  0  0  0
   -9.5916  -12.5747    0.0000 C   0  0  0  0  0  0  0  0  0  0  0  0
  -10.7407  -13.5389    0.0000 C   0  0  0  0  0  0  0  0  0  0  0  0
  -12.1502  -13.0259    0.0000 P   0  0  0  0  0  0  0  0  0  0  0  0
  -11.4002  -11.7269    0.0000 O   0  0  0  0  0  0  0  0  0  0  0  0
  -12.4107  -14.5031    0.0000 O   0  0  0  0  0  0  0  0  0  0  0  0
  -13.8202  -15.0161    0.0000 C   0  0  0  0  0  0  0  0  0  0  0  0
  -14.0807  -16.4934    0.0000 C   0  0  0  0  0  0  0  0  0  0  0  0
  -15.4902  -17.0064    0.0000 C   0  0  0  0  0  0  0  0  0  0  0  0
  -16.6393  -16.0422    0.0000 C   0  0  0  0  0  0  0  0  0  0  0  0
  -16.3788  -14.5650    0.0000 C   0  0  0  0  0  0  0  0  0  0  0  0
  -14.9693  -14.0520    0.0000 C   0  0  0  0  0  0  0  0  0  0  0  0
  -14.7088  -12.5747    0.0000 C   0  0  0  0  0  0  0  0  0  0  0  0
  -15.8579  -11.6106    0.0000 C   0  0  0  0  0  0  0  0  0  0  0  0
  -15.5974  -10.1334    0.0000 C   0  0  0  0  0  0  0  0  0  0  0  0
  -14.1879   -9.6203    0.0000 C   0  0  0  0  0  0  0  0  0  0  0  0
  -13.0388  -10.5845    0.0000 C   0  0  0  0  0  0  0  0  0  0  0  0
  -13.2993  -12.0617    0.0000 C   0  0  0  0  0  0  0  0  0  0  0  0
   -7.2935  -10.6464    0.0000 C   0  0  0  0  0  0  0  0  0  0  0  0
   -5.5163   -5.7636    0.0000 C   0  0  0  0  0  0  0  0  0  0  0  0
   -5.7768   -4.2864    0.0000 C   0  0  0  0  0  0  0  0  0  0  0  0
   -4.6277   -3.3222    0.0000 C   0  0  0  0  0  0  0  0  0  0  0  0
   -4.8882   -1.8450    0.0000 C   0  0  0  0  0  0  0  0  0  0  0  0
   -3.7391   -0.8808    0.0000 C   0  0  0  0  0  0  0  0  0  0  0  0
   -3.9996    0.5964    0.0000 P   0  0  0  0  0  0  0  0  0  0  0  0
   -5.4091    0.0834    0.0000 O   0  0  0  0  0  0  0  0  0  0  0  0
   -2.4996    0.5964    0.0000 O   0  0  0  0  0  0  0  0  0  0  0  0
   -1.7496    1.8954    0.0000 C   0  0  0  0  0  0  0  0  0  0  0  0
   -0.2496    1.8954    0.0000 C   0  0  0  0  0  0  0  0  0  0  0  0
    0.5004    3.1945    0.0000 C   0  0  0  0  0  0  0  0  0  0  0  0
   -0.2496    4.4935    0.0000 C   0  0  0  0  0  0  0  0  0  0  0  0
   -1.7496    4.4935    0.0000 C   0  0  0  0  0  0  0  0  0  0  0  0
   -2.4996    3.1945    0.0000 C   0  0  0  0  0  0  0  0  0  0  0  0
   -3.9996    3.1945    0.0000 C   0  0  0  0  0  0  0  0  0  0  0  0
   -4.7496    4.4935    0.0000 C   0  0  0  0  0  0  0  0  0  0  0  0
   -6.2496    4.4935    0.0000 C   0  0  0  0  0  0  0  0  0  0  0  0
   -6.9996    3.1945    0.0000 C   0  0  0  0  0  0  0  0  0  0  0  0
   -6.2496    1.8954    0.0000 C   0  0  0  0  0  0  0  0  0  0  0  0
   -4.7496    1.8954    0.0000 C   0  0  0  0  0  0  0  0  0  0  0  0
  1  2  2  0
  2  3  1  0
  3  4  1  0
  4  5  1  0
  5  6  2  0
  6  7  1  0
  7  8  2  0
  8  9  1  0
  9 10  1  0
  9 11  1  0
  9 12  1  0
 12 13  2  0
 13 14  1  0
 14 15  2  0
 15 16  1  0
 16 17  1  0
 17 18  1  0
 18 19  1  0
 19 20  2  0
 20 21  1  0
 21 22  2  0
 22 23  1  0
 23 24  1  0
 23 25  1  0
 23 26  1  0
 26 27  2  0
 27 28  1  0
 28 29  2  0
 29 30  1  0
 30 31  1  0
 31 32  1  0
 32 33  2  0
 29 34  1  0
 34 35  1  0
 35 36  1  0
 36 37  1  0
 37 38  1  0
 38 39  2  0
 38 40  1  0
 40 41  1  0
 41 42  2  0
 42 43  1  0
 43 44  2  0
 44 45  1  0
 45 46  2  0
 46 47  1  0
 47 48  2  0
 48 49  1  0
 49 50  2  0
 50 51  1  0
 51 52  2  0
 34 53  2  0
 22 54  1  0
 54 55  2  0
 55 56  1  0
 56 57  1  0
 57 58  1  0
 58 59  1  0
 59 60  2  0
 59 61  1  0
 61 62  1  0
 62 63  2  0
 63 64  1  0
 64 65  2  0
 65 66  1  0
 66 67  2  0
 67 68  1  0
 68 69  2  0
 69 70  1  0
 70 71  2  0
 71 72  1  0
 72 73  2  0
 17 74  1  0
 74 75  1  0
 75 76  2  0
 76 77  1  0
 77 78  2  0
 78 79  1  0
 79 80  1  0
 79 81  1  0
 79 82  1  0
 82 83  2  0
 83 84  1  0
 84 85  2  0
 85 86  1  0
 86 87  1  0
 87 88  1  0
 88 89  2  0
 85 90  1  0
 90 91  1  0
 91 92  1  0
 92 93  1  0
 93 94  1  0
 94 95  2  0
 94 96  1  0
 96 97  1  0
 97 98  2  0
 98 99  1  0
 99100  2  0
100101  1  0
101102  2  0
102103  1  0
103104  2  0
104105  1  0
105106  2  0
106107  1  0
107108  2  0
 90109  2  0
 78110  1  0
110111  2  0
111112  1  0
112113  1  0
113114  1  0
114115  1  0
115116  2  0
115117  1  0
117118  1  0
118119  2  0
119120  1  0
120121  2  0
121122  1  0
122123  2  0
123124  1  0
124125  2  0
125126  1  0
126127  2  0
127128  1  0
128129  2  0
 17130  1  0
130131  1  0
131132  2  0
132133  1  0
133134  2  0
134135  1  0
135136  1  0
135137  1  0
135138  1  0
138139  2  0
139140  1  0
140141  2  0
141142  1  0
142143  1  0
143144  1  0
144145  2  0
141146  1  0
146147  1  0
147148  1  0
148149  1  0
149150  1  0
150151  2  0
150152  1  0
152153  1  0
153154  2  0
154155  1  0
155156  2  0
156157  1  0
157158  2  0
158159  1  0
159160  2  0
160161  1  0
161162  2  0
162163  1  0
163164  2  0
146165  2  0
134166  1  0
166167  2  0
167168  1  0
168169  1  0
169170  1  0
170171  1  0
171172  2  0
171173  1  0
173174  1  0
174175  2  0
175176  1  0
176177  2  0
177178  1  0
178179  2  0
179180  1  0
180181  2  0
181182  1  0
182183  2  0
183184  1  0
184185  2  0
 15186  1  0
186187  1  0
187188  1  0
188189  1  0
189190  1  0
190191  2  0
190192  1  0
192193  1  0
193194  2  0
194195  1  0
195196  2  0
196197  1  0
197198  2  0
198199  1  0
199200  2  0
200201  1  0
201202  2  0
202203  1  0
203204  2  0
186205  2  0
  8206  1  0
206207  2  0
207208  1  0
208209  1  0
209210  1  0
210211  1  0
211212  2  0
211213  1  0
213214  1  0
214215  2  0
215216  1  0
216217  2  0
217218  1  0
218219  2  0
219220  1  0
220221  2  0
221222  1  0
222223  2  0
223224  1  0
224225  2  0
207  5  1  0
225211  1  0
205 12  1  0
219214  1  0
225220  1  0
 55 19  1  0
 73 59  1  0
111 75  1  0
129115  1  0
167131  1  0
185171  1  0
204190  1  0
 53 26  1  0
 67 62  1  0
 73 68  1  0
109 82  1  0
123118  1  0
129124  1  0
165138  1  0
179174  1  0
185180  1  0
198193  1  0
204199  1  0
 52 38  1  0
108 94  1  0
164150  1  0
 46 41  1  0
 52 47  1  0
102 97  1  0
108103  1  0
158153  1  0
164159  1  0
M  END
>  <Candidate_ID>  (383) 
CAND_R2_383

>  <Candidate_Name>  (383) 
TetraDSi-OH-allyl-all

>  <Parent_Seed_ID>  (383) 
TRAIN_103

>  <Parent_Name>  (383) 
TetraDSi

>  <Transformation_Code>  (383) 
OH_allyl_all

>  <Design_Family>  (383) 
P-Si

>  <Preparation_Type>  (383) 
Additive

>  <Synthesis_Level>  (383) 
C

>  <Parent_Tanimoto_r3>  (383) 
0.7777777777777778

>  <Max_Train_Tanimoto_r3>  (383) 
0.7777777777777778

>  <Risk_Flags>  (383) 
high molecular weight; high DOPO count; exploratory only; excluded from formal screening

$$$$
CAND_R2_384 | BDHDP-amino
     RDKit          2D

127141  0  0  0  0  0  0  0  0999 V2000
  -11.6272   16.2164    0.0000 N   0  0  0  0  0  0  0  0  0  0  0  0
  -11.8877   14.7392    0.0000 C   0  0  0  0  0  0  0  0  0  0  0  0
  -13.2973   14.2262    0.0000 C   0  0  0  0  0  0  0  0  0  0  0  0
  -13.5577   12.7489    0.0000 C   0  0  0  0  0  0  0  0  0  0  0  0
  -12.4087   11.7848    0.0000 C   0  0  0  0  0  0  0  0  0  0  0  0
  -10.9991   12.2978    0.0000 C   0  0  0  0  0  0  0  0  0  0  0  0
  -10.7387   13.7750    0.0000 C   0  0  0  0  0  0  0  0  0  0  0  0
   -9.8501   11.3336    0.0000 C   0  0  0  0  0  0  0  0  0  0  0  0
   -8.4405   11.8466    0.0000 C   0  0  0  0  0  0  0  0  0  0  0  0
   -7.2915   10.8825    0.0000 C   0  0  0  0  0  0  0  0  0  0  0  0
   -7.5519    9.4053    0.0000 C   0  0  0  0  0  0  0  0  0  0  0  0
   -8.9615    8.8922    0.0000 C   0  0  0  0  0  0  0  0  0  0  0  0
  -10.1105    9.8564    0.0000 C   0  0  0  0  0  0  0  0  0  0  0  0
  -11.5201    9.3434    0.0000 P   0  0  0  0  0  0  0  0  0  0  0  0
  -10.7701    8.0443    0.0000 O   0  0  0  0  0  0  0  0  0  0  0  0
  -12.6691    8.3792    0.0000 C   0  0  0  0  0  0  0  0  0  0  0  0
  -12.4087    6.9020    0.0000 N   0  0  0  0  0  0  0  0  0  0  0  0
  -13.5577    5.9378    0.0000 C   0  0  0  0  0  0  0  0  0  0  0  0
  -13.2973    4.4606    0.0000 C   0  0  0  0  0  0  0  0  0  0  0  0
  -14.4463    3.4964    0.0000 O   0  0  0  0  0  0  0  0  0  0  0  0
  -10.9991    6.3890    0.0000 C   0  0  0  0  0  0  0  0  0  0  0  0
  -10.7387    4.9117    0.0000 C   0  0  0  0  0  0  0  0  0  0  0  0
   -9.3291    4.3987    0.0000 O   0  0  0  0  0  0  0  0  0  0  0  0
   -9.0686    2.9215    0.0000 B   0  0  0  0  0  0  0  0  0  0  0  0
   -7.6591    2.4085    0.0000 O   0  0  0  0  0  0  0  0  0  0  0  0
   -7.3986    0.9313    0.0000 C   0  0  0  0  0  0  0  0  0  0  0  0
   -5.9891    0.4182    0.0000 C   0  0  0  0  0  0  0  0  0  0  0  0
   -5.7286   -1.0590    0.0000 N   0  0  0  0  0  0  0  0  0  0  0  0
   -4.3191   -1.5720    0.0000 C   0  0  0  0  0  0  0  0  0  0  0  0
   -3.1700   -0.6078    0.0000 C   0  0  0  0  0  0  0  0  0  0  0  0
   -1.7605   -1.1209    0.0000 O   0  0  0  0  0  0  0  0  0  0  0  0
   -0.6114   -0.1567    0.0000 B   0  0  0  0  0  0  0  0  0  0  0  0
    0.7981   -0.6697    0.0000 O   0  0  0  0  0  0  0  0  0  0  0  0
   -0.8719    1.3205    0.0000 O   0  0  0  0  0  0  0  0  0  0  0  0
   -6.8777   -2.0232    0.0000 C   0  0  0  0  0  0  0  0  0  0  0  0
   -6.6172   -3.5004    0.0000 P   0  0  0  0  0  0  0  0  0  0  0  0
   -5.2077   -2.9873    0.0000 O   0  0  0  0  0  0  0  0  0  0  0  0
   -8.1172   -3.5004    0.0000 O   0  0  0  0  0  0  0  0  0  0  0  0
   -8.8672   -4.7994    0.0000 C   0  0  0  0  0  0  0  0  0  0  0  0
  -10.3672   -4.7994    0.0000 C   0  0  0  0  0  0  0  0  0  0  0  0
  -11.1172   -6.0985    0.0000 C   0  0  0  0  0  0  0  0  0  0  0  0
  -10.3672   -7.3975    0.0000 C   0  0  0  0  0  0  0  0  0  0  0  0
   -8.8672   -7.3975    0.0000 C   0  0  0  0  0  0  0  0  0  0  0  0
   -8.1172   -6.0985    0.0000 C   0  0  0  0  0  0  0  0  0  0  0  0
   -6.6172   -6.0985    0.0000 C   0  0  0  0  0  0  0  0  0  0  0  0
   -5.8672   -7.3975    0.0000 C   0  0  0  0  0  0  0  0  0  0  0  0
   -4.3672   -7.3975    0.0000 C   0  0  0  0  0  0  0  0  0  0  0  0
   -3.6172   -6.0985    0.0000 C   0  0  0  0  0  0  0  0  0  0  0  0
   -4.3672   -4.7994    0.0000 C   0  0  0  0  0  0  0  0  0  0  0  0
   -5.8672   -4.7994    0.0000 C   0  0  0  0  0  0  0  0  0  0  0  0
  -10.2177    1.9573    0.0000 O   0  0  0  0  0  0  0  0  0  0  0  0
   -9.9572    0.4801    0.0000 C   0  0  0  0  0  0  0  0  0  0  0  0
  -11.1063   -0.4841    0.0000 C   0  0  0  0  0  0  0  0  0  0  0  0
  -12.5158    0.0290    0.0000 N   0  0  0  0  0  0  0  0  0  0  0  0
  -13.6649   -0.9352    0.0000 C   0  0  0  0  0  0  0  0  0  0  0  0
  -13.4044   -2.4124    0.0000 C   0  0  0  0  0  0  0  0  0  0  0  0
  -14.5535   -3.3766    0.0000 O   0  0  0  0  0  0  0  0  0  0  0  0
  -14.2930   -4.8538    0.0000 B   0  0  0  0  0  0  0  0  0  0  0  0
  -15.4421   -5.8180    0.0000 O   0  0  0  0  0  0  0  0  0  0  0  0
  -16.8516   -5.3050    0.0000 C   0  0  0  0  0  0  0  0  0  0  0  0
  -18.0007   -6.2692    0.0000 C   0  0  0  0  0  0  0  0  0  0  0  0
  -19.4102   -5.7561    0.0000 N   0  0  0  0  0  0  0  0  0  0  0  0
  -20.5593   -6.7203    0.0000 C   0  0  0  0  0  0  0  0  0  0  0  0
  -20.2988   -8.1975    0.0000 C   0  0  0  0  0  0  0  0  0  0  0  0
  -21.4479   -9.1617    0.0000 O   0  0  0  0  0  0  0  0  0  0  0  0
  -21.1874  -10.6389    0.0000 B   0  0  0  0  0  0  0  0  0  0  0  0
  -22.3365  -11.6031    0.0000 O   0  0  0  0  0  0  0  0  0  0  0  0
  -19.7779  -11.1520    0.0000 O   0  0  0  0  0  0  0  0  0  0  0  0
  -19.6707   -4.2789    0.0000 C   0  0  0  0  0  0  0  0  0  0  0  0
  -21.0803   -3.7659    0.0000 P   0  0  0  0  0  0  0  0  0  0  0  0
  -21.3407   -5.2431    0.0000 O   0  0  0  0  0  0  0  0  0  0  0  0
  -20.3303   -2.4669    0.0000 O   0  0  0  0  0  0  0  0  0  0  0  0
  -21.0803   -1.1678    0.0000 C   0  0  0  0  0  0  0  0  0  0  0  0
  -20.3303    0.1312    0.0000 C   0  0  0  0  0  0  0  0  0  0  0  0
  -21.0803    1.4303    0.0000 C   0  0  0  0  0  0  0  0  0  0  0  0
  -22.5803    1.4303    0.0000 C   0  0  0  0  0  0  0  0  0  0  0  0
  -23.3303    0.1312    0.0000 C   0  0  0  0  0  0  0  0  0  0  0  0
  -22.5803   -1.1678    0.0000 C   0  0  0  0  0  0  0  0  0  0  0  0
  -23.3303   -2.4669    0.0000 C   0  0  0  0  0  0  0  0  0  0  0  0
  -24.8303   -2.4669    0.0000 C   0  0  0  0  0  0  0  0  0  0  0  0
  -25.5803   -3.7659    0.0000 C   0  0  0  0  0  0  0  0  0  0  0  0
  -24.8303   -5.0649    0.0000 C   0  0  0  0  0  0  0  0  0  0  0  0
  -23.3303   -5.0649    0.0000 C   0  0  0  0  0  0  0  0  0  0  0  0
  -22.5803   -3.7659    0.0000 C   0  0  0  0  0  0  0  0  0  0  0  0
  -12.8835   -5.3669    0.0000 O   0  0  0  0  0  0  0  0  0  0  0  0
  -12.6230   -6.8441    0.0000 C   0  0  0  0  0  0  0  0  0  0  0  0
  -11.2135   -7.3571    0.0000 C   0  0  0  0  0  0  0  0  0  0  0  0
  -10.9530   -8.8343    0.0000 N   0  0  0  0  0  0  0  0  0  0  0  0
   -9.5435   -9.3473    0.0000 C   0  0  0  0  0  0  0  0  0  0  0  0
   -8.3944   -8.3832    0.0000 C   0  0  0  0  0  0  0  0  0  0  0  0
   -6.9849   -8.8962    0.0000 O   0  0  0  0  0  0  0  0  0  0  0  0
   -6.7244  -10.3734    0.0000 B   0  0  0  0  0  0  0  0  0  0  0  0
   -5.3148  -10.8864    0.0000 O   0  0  0  0  0  0  0  0  0  0  0  0
   -7.8735  -11.3376    0.0000 O   0  0  0  0  0  0  0  0  0  0  0  0
  -12.1021   -9.7985    0.0000 C   0  0  0  0  0  0  0  0  0  0  0  0
  -11.8416  -11.2757    0.0000 P   0  0  0  0  0  0  0  0  0  0  0  0
  -10.4321  -10.7627    0.0000 O   0  0  0  0  0  0  0  0  0  0  0  0
  -13.3416  -11.2757    0.0000 O   0  0  0  0  0  0  0  0  0  0  0  0
  -14.0916  -12.5747    0.0000 C   0  0  0  0  0  0  0  0  0  0  0  0
  -15.5916  -12.5747    0.0000 C   0  0  0  0  0  0  0  0  0  0  0  0
  -16.3416  -13.8738    0.0000 C   0  0  0  0  0  0  0  0  0  0  0  0
  -15.5916  -15.1728    0.0000 C   0  0  0  0  0  0  0  0  0  0  0  0
  -14.0916  -15.1728    0.0000 C   0  0  0  0  0  0  0  0  0  0  0  0
  -13.3416  -13.8738    0.0000 C   0  0  0  0  0  0  0  0  0  0  0  0
  -11.8416  -13.8738    0.0000 C   0  0  0  0  0  0  0  0  0  0  0  0
  -11.0916  -15.1728    0.0000 C   0  0  0  0  0  0  0  0  0  0  0  0
   -9.5916  -15.1728    0.0000 C   0  0  0  0  0  0  0  0  0  0  0  0
   -8.8416  -13.8738    0.0000 C   0  0  0  0  0  0  0  0  0  0  0  0
   -9.5916  -12.5747    0.0000 C   0  0  0  0  0  0  0  0  0  0  0  0
  -11.0916  -12.5747    0.0000 C   0  0  0  0  0  0  0  0  0  0  0  0
  -12.7763    1.5062    0.0000 C   0  0  0  0  0  0  0  0  0  0  0  0
  -14.1859    2.0192    0.0000 P   0  0  0  0  0  0  0  0  0  0  0  0
  -13.4359    3.3182    0.0000 O   0  0  0  0  0  0  0  0  0  0  0  0
  -14.4463    0.5420    0.0000 O   0  0  0  0  0  0  0  0  0  0  0  0
  -15.8559    0.0290    0.0000 C   0  0  0  0  0  0  0  0  0  0  0  0
  -16.1163   -1.4483    0.0000 C   0  0  0  0  0  0  0  0  0  0  0  0
  -17.5259   -1.9613    0.0000 C   0  0  0  0  0  0  0  0  0  0  0  0
  -18.6749   -0.9971    0.0000 C   0  0  0  0  0  0  0  0  0  0  0  0
  -18.4145    0.4801    0.0000 C   0  0  0  0  0  0  0  0  0  0  0  0
  -17.0049    0.9931    0.0000 C   0  0  0  0  0  0  0  0  0  0  0  0
  -16.7445    2.4703    0.0000 C   0  0  0  0  0  0  0  0  0  0  0  0
  -17.8935    3.4345    0.0000 C   0  0  0  0  0  0  0  0  0  0  0  0
  -17.6331    4.9117    0.0000 C   0  0  0  0  0  0  0  0  0  0  0  0
  -16.2235    5.4248    0.0000 C   0  0  0  0  0  0  0  0  0  0  0  0
  -15.0744    4.4606    0.0000 C   0  0  0  0  0  0  0  0  0  0  0  0
  -15.3349    2.9834    0.0000 C   0  0  0  0  0  0  0  0  0  0  0  0
  -12.6691   10.3076    0.0000 O   0  0  0  0  0  0  0  0  0  0  0  0
  1  2  1  0
  2  3  2  0
  3  4  1  0
  4  5  2  0
  5  6  1  0
  6  7  2  0
  6  8  1  0
  8  9  2  0
  9 10  1  0
 10 11  2  0
 11 12  1  0
 12 13  2  0
 13 14  1  0
 14 15  2  0
 14 16  1  0
 16 17  1  0
 17 18  1  0
 18 19  1  0
 19 20  1  0
 17 21  1  0
 21 22  1  0
 22 23  1  0
 23 24  1  0
 24 25  1  0
 25 26  1  0
 26 27  1  0
 27 28  1  0
 28 29  1  0
 29 30  1  0
 30 31  1  0
 31 32  1  0
 32 33  1  0
 32 34  1  0
 28 35  1  0
 35 36  1  0
 36 37  2  0
 36 38  1  0
 38 39  1  0
 39 40  2  0
 40 41  1  0
 41 42  2  0
 42 43  1  0
 43 44  2  0
 44 45  1  0
 45 46  2  0
 46 47  1  0
 47 48  2  0
 48 49  1  0
 49 50  2  0
 24 51  1  0
 51 52  1  0
 52 53  1  0
 53 54  1  0
 54 55  1  0
 55 56  1  0
 56 57  1  0
 57 58  1  0
 58 59  1  0
 59 60  1  0
 60 61  1  0
 61 62  1  0
 62 63  1  0
 63 64  1  0
 64 65  1  0
 65 66  1  0
 66 67  1  0
 66 68  1  0
 62 69  1  0
 69 70  1  0
 70 71  2  0
 70 72  1  0
 72 73  1  0
 73 74  2  0
 74 75  1  0
 75 76  2  0
 76 77  1  0
 77 78  2  0
 78 79  1  0
 79 80  2  0
 80 81  1  0
 81 82  2  0
 82 83  1  0
 83 84  2  0
 58 85  1  0
 85 86  1  0
 86 87  1  0
 87 88  1  0
 88 89  1  0
 89 90  1  0
 90 91  1  0
 91 92  1  0
 92 93  1  0
 92 94  1  0
 88 95  1  0
 95 96  1  0
 96 97  2  0
 96 98  1  0
 98 99  1  0
 99100  2  0
100101  1  0
101102  2  0
102103  1  0
103104  2  0
104105  1  0
105106  2  0
106107  1  0
107108  2  0
108109  1  0
109110  2  0
 54111  1  0
111112  1  0
112113  2  0
112114  1  0
114115  1  0
115116  2  0
116117  1  0
117118  2  0
118119  1  0
119120  2  0
120121  1  0
121122  2  0
122123  1  0
123124  2  0
124125  1  0
125126  2  0
 14127  1  0
  7  2  1  0
 13  8  1  0
 50 36  1  0
 84 70  1  0
110 96  1  0
126112  1  0
127  5  1  0
 44 39  1  0
 50 45  1  0
 78 73  1  0
 84 79  1  0
104 99  1  0
110105  1  0
120115  1  0
126121  1  0
M  END
>  <Candidate_ID>  (384) 
CAND_R2_384

>  <Candidate_Name>  (384) 
BDHDP-amino

>  <Parent_Seed_ID>  (384) 
TRAIN_107

>  <Parent_Name>  (384) 
BDHDP

>  <Transformation_Code>  (384) 
amino

>  <Design_Family>  (384) 
P-N-B

>  <Preparation_Type>  (384) 
Co-curing

>  <Synthesis_Level>  (384) 
C

>  <Parent_Tanimoto_r3>  (384) 
0.8160919540229885

>  <Max_Train_Tanimoto_r3>  (384) 
0.8160919540229885

>  <Risk_Flags>  (384) 
DOPO-core substitution route needs confirmation; high molecular weight; high DOPO count; exploratory only; excluded from formal screening

$$$$
CAND_R2_385 | BDHDP-hydroxy
     RDKit          2D

127141  0  0  0  0  0  0  0  0999 V2000
    4.8400   -9.1766    0.0000 O   0  0  0  0  0  0  0  0  0  0  0  0
    4.0900   -7.8776    0.0000 P   0  0  0  0  0  0  0  0  0  0  0  0
    2.9410   -8.8418    0.0000 C   0  0  0  0  0  0  0  0  0  0  0  0
    1.5314   -8.3287    0.0000 N   0  0  0  0  0  0  0  0  0  0  0  0
    1.2709   -6.8515    0.0000 C   0  0  0  0  0  0  0  0  0  0  0  0
    2.4200   -5.8874    0.0000 C   0  0  0  0  0  0  0  0  0  0  0  0
    1.8098   -4.5171    0.0000 O   0  0  0  0  0  0  0  0  0  0  0  0
    0.3824   -9.2929    0.0000 C   0  0  0  0  0  0  0  0  0  0  0  0
    0.6428  -10.7701    0.0000 C   0  0  0  0  0  0  0  0  0  0  0  0
   -0.5062  -11.7343    0.0000 O   0  0  0  0  0  0  0  0  0  0  0  0
   -0.2458  -13.2115    0.0000 B   0  0  0  0  0  0  0  0  0  0  0  0
   -1.3948  -14.1757    0.0000 O   0  0  0  0  0  0  0  0  0  0  0  0
   -2.8044  -13.6627    0.0000 C   0  0  0  0  0  0  0  0  0  0  0  0
   -3.9534  -14.6269    0.0000 C   0  0  0  0  0  0  0  0  0  0  0  0
   -5.3630  -14.1138    0.0000 N   0  0  0  0  0  0  0  0  0  0  0  0
   -5.6235  -12.6366    0.0000 C   0  0  0  0  0  0  0  0  0  0  0  0
   -4.4744  -11.6724    0.0000 C   0  0  0  0  0  0  0  0  0  0  0  0
   -4.7349  -10.1952    0.0000 O   0  0  0  0  0  0  0  0  0  0  0  0
   -3.5858   -9.2311    0.0000 B   0  0  0  0  0  0  0  0  0  0  0  0
   -3.8463   -7.7538    0.0000 O   0  0  0  0  0  0  0  0  0  0  0  0
   -2.1763   -9.7441    0.0000 O   0  0  0  0  0  0  0  0  0  0  0  0
   -6.5120  -15.0780    0.0000 C   0  0  0  0  0  0  0  0  0  0  0  0
   -6.2516  -16.5552    0.0000 P   0  0  0  0  0  0  0  0  0  0  0  0
   -4.8420  -16.0422    0.0000 O   0  0  0  0  0  0  0  0  0  0  0  0
   -7.7516  -16.5552    0.0000 O   0  0  0  0  0  0  0  0  0  0  0  0
   -8.5016  -17.8543    0.0000 C   0  0  0  0  0  0  0  0  0  0  0  0
  -10.0016  -17.8543    0.0000 C   0  0  0  0  0  0  0  0  0  0  0  0
  -10.7516  -19.1533    0.0000 C   0  0  0  0  0  0  0  0  0  0  0  0
  -10.0016  -20.4523    0.0000 C   0  0  0  0  0  0  0  0  0  0  0  0
   -8.5016  -20.4523    0.0000 C   0  0  0  0  0  0  0  0  0  0  0  0
   -7.7516  -19.1533    0.0000 C   0  0  0  0  0  0  0  0  0  0  0  0
   -6.2516  -19.1533    0.0000 C   0  0  0  0  0  0  0  0  0  0  0  0
   -5.5016  -20.4523    0.0000 C   0  0  0  0  0  0  0  0  0  0  0  0
   -4.0016  -20.4523    0.0000 C   0  0  0  0  0  0  0  0  0  0  0  0
   -3.2516  -19.1533    0.0000 C   0  0  0  0  0  0  0  0  0  0  0  0
   -4.0016  -17.8543    0.0000 C   0  0  0  0  0  0  0  0  0  0  0  0
   -5.5016  -17.8543    0.0000 C   0  0  0  0  0  0  0  0  0  0  0  0
    1.1638  -13.7246    0.0000 O   0  0  0  0  0  0  0  0  0  0  0  0
    2.3128  -12.7604    0.0000 C   0  0  0  0  0  0  0  0  0  0  0  0
    3.7224  -13.2734    0.0000 C   0  0  0  0  0  0  0  0  0  0  0  0
    3.9828  -14.7506    0.0000 N   0  0  0  0  0  0  0  0  0  0  0  0
    5.3924  -15.2637    0.0000 C   0  0  0  0  0  0  0  0  0  0  0  0
    5.6529  -16.7409    0.0000 C   0  0  0  0  0  0  0  0  0  0  0  0
    7.0624  -17.2539    0.0000 O   0  0  0  0  0  0  0  0  0  0  0  0
    7.3229  -18.7311    0.0000 B   0  0  0  0  0  0  0  0  0  0  0  0
    8.7324  -19.2441    0.0000 O   0  0  0  0  0  0  0  0  0  0  0  0
    9.8815  -18.2800    0.0000 C   0  0  0  0  0  0  0  0  0  0  0  0
   11.2910  -18.7930    0.0000 C   0  0  0  0  0  0  0  0  0  0  0  0
   12.4401  -17.8288    0.0000 N   0  0  0  0  0  0  0  0  0  0  0  0
   13.8496  -18.3418    0.0000 C   0  0  0  0  0  0  0  0  0  0  0  0
   14.1101  -19.8190    0.0000 C   0  0  0  0  0  0  0  0  0  0  0  0
   15.5196  -20.3321    0.0000 O   0  0  0  0  0  0  0  0  0  0  0  0
   15.7801  -21.8093    0.0000 B   0  0  0  0  0  0  0  0  0  0  0  0
   17.1896  -22.3223    0.0000 O   0  0  0  0  0  0  0  0  0  0  0  0
   14.6310  -22.7735    0.0000 O   0  0  0  0  0  0  0  0  0  0  0  0
   12.1796  -16.3516    0.0000 C   0  0  0  0  0  0  0  0  0  0  0  0
   13.3287  -15.3874    0.0000 P   0  0  0  0  0  0  0  0  0  0  0  0
   14.0787  -16.6865    0.0000 O   0  0  0  0  0  0  0  0  0  0  0  0
   12.1796  -14.4232    0.0000 O   0  0  0  0  0  0  0  0  0  0  0  0
   12.4401  -12.9460    0.0000 C   0  0  0  0  0  0  0  0  0  0  0  0
   11.2910  -11.9818    0.0000 C   0  0  0  0  0  0  0  0  0  0  0  0
   11.5515  -10.5046    0.0000 C   0  0  0  0  0  0  0  0  0  0  0  0
   12.9610   -9.9916    0.0000 C   0  0  0  0  0  0  0  0  0  0  0  0
   14.1101  -10.9558    0.0000 C   0  0  0  0  0  0  0  0  0  0  0  0
   13.8496  -12.4330    0.0000 C   0  0  0  0  0  0  0  0  0  0  0  0
   14.9987  -13.3972    0.0000 C   0  0  0  0  0  0  0  0  0  0  0  0
   16.4082  -12.8841    0.0000 C   0  0  0  0  0  0  0  0  0  0  0  0
   17.5573  -13.8483    0.0000 C   0  0  0  0  0  0  0  0  0  0  0  0
   17.2968  -15.3255    0.0000 C   0  0  0  0  0  0  0  0  0  0  0  0
   15.8873  -15.8386    0.0000 C   0  0  0  0  0  0  0  0  0  0  0  0
   14.7382  -14.8744    0.0000 C   0  0  0  0  0  0  0  0  0  0  0  0
    6.1738  -19.6953    0.0000 O   0  0  0  0  0  0  0  0  0  0  0  0
    6.4343  -21.1725    0.0000 C   0  0  0  0  0  0  0  0  0  0  0  0
    5.2852  -22.1367    0.0000 C   0  0  0  0  0  0  0  0  0  0  0  0
    5.5457  -23.6139    0.0000 N   0  0  0  0  0  0  0  0  0  0  0  0
    4.3966  -24.5781    0.0000 C   0  0  0  0  0  0  0  0  0  0  0  0
    2.9871  -24.0650    0.0000 C   0  0  0  0  0  0  0  0  0  0  0  0
    1.8380  -25.0292    0.0000 O   0  0  0  0  0  0  0  0  0  0  0  0
    0.4285  -24.5162    0.0000 B   0  0  0  0  0  0  0  0  0  0  0  0
   -0.7206  -25.4804    0.0000 O   0  0  0  0  0  0  0  0  0  0  0  0
    0.1680  -23.0390    0.0000 O   0  0  0  0  0  0  0  0  0  0  0  0
    6.9552  -24.1269    0.0000 C   0  0  0  0  0  0  0  0  0  0  0  0
    7.2157  -25.6041    0.0000 P   0  0  0  0  0  0  0  0  0  0  0  0
    5.7157  -25.6041    0.0000 O   0  0  0  0  0  0  0  0  0  0  0  0
    8.6252  -25.0911    0.0000 O   0  0  0  0  0  0  0  0  0  0  0  0
    9.7743  -26.0553    0.0000 C   0  0  0  0  0  0  0  0  0  0  0  0
   11.1838  -25.5423    0.0000 C   0  0  0  0  0  0  0  0  0  0  0  0
   12.3329  -26.5064    0.0000 C   0  0  0  0  0  0  0  0  0  0  0  0
   12.0724  -27.9837    0.0000 C   0  0  0  0  0  0  0  0  0  0  0  0
   10.6629  -28.4967    0.0000 C   0  0  0  0  0  0  0  0  0  0  0  0
    9.5138  -27.5325    0.0000 C   0  0  0  0  0  0  0  0  0  0  0  0
    8.1043  -28.0455    0.0000 C   0  0  0  0  0  0  0  0  0  0  0  0
    7.8438  -29.5227    0.0000 C   0  0  0  0  0  0  0  0  0  0  0  0
    6.4343  -30.0358    0.0000 C   0  0  0  0  0  0  0  0  0  0  0  0
    5.2852  -29.0716    0.0000 C   0  0  0  0  0  0  0  0  0  0  0  0
    5.5457  -27.5944    0.0000 C   0  0  0  0  0  0  0  0  0  0  0  0
    6.9552  -27.0813    0.0000 C   0  0  0  0  0  0  0  0  0  0  0  0
    2.8338  -15.7148    0.0000 C   0  0  0  0  0  0  0  0  0  0  0  0
    3.0943  -17.1920    0.0000 P   0  0  0  0  0  0  0  0  0  0  0  0
    4.5038  -16.6790    0.0000 O   0  0  0  0  0  0  0  0  0  0  0  0
    1.5943  -17.1920    0.0000 O   0  0  0  0  0  0  0  0  0  0  0  0
    0.8443  -18.4911    0.0000 C   0  0  0  0  0  0  0  0  0  0  0  0
   -0.6557  -18.4911    0.0000 C   0  0  0  0  0  0  0  0  0  0  0  0
   -1.4057  -19.7901    0.0000 C   0  0  0  0  0  0  0  0  0  0  0  0
   -0.6557  -21.0891    0.0000 C   0  0  0  0  0  0  0  0  0  0  0  0
    0.8443  -21.0891    0.0000 C   0  0  0  0  0  0  0  0  0  0  0  0
    1.5943  -19.7901    0.0000 C   0  0  0  0  0  0  0  0  0  0  0  0
    3.0943  -19.7901    0.0000 C   0  0  0  0  0  0  0  0  0  0  0  0
    3.8443  -21.0891    0.0000 C   0  0  0  0  0  0  0  0  0  0  0  0
    5.3443  -21.0891    0.0000 C   0  0  0  0  0  0  0  0  0  0  0  0
    6.0943  -19.7901    0.0000 C   0  0  0  0  0  0  0  0  0  0  0  0
    5.3443  -18.4911    0.0000 C   0  0  0  0  0  0  0  0  0  0  0  0
    3.8443  -18.4911    0.0000 C   0  0  0  0  0  0  0  0  0  0  0  0
    2.9410   -6.9134    0.0000 O   0  0  0  0  0  0  0  0  0  0  0  0
    3.2014   -5.4362    0.0000 C   0  0  0  0  0  0  0  0  0  0  0  0
    2.0524   -4.4720    0.0000 C   0  0  0  0  0  0  0  0  0  0  0  0
    2.3128   -2.9948    0.0000 C   0  0  0  0  0  0  0  0  0  0  0  0
    3.7224   -2.4818    0.0000 C   0  0  0  0  0  0  0  0  0  0  0  0
    3.9828   -1.0046    0.0000 O   0  0  0  0  0  0  0  0  0  0  0  0
    4.8714   -3.4460    0.0000 C   0  0  0  0  0  0  0  0  0  0  0  0
    4.6110   -4.9232    0.0000 C   0  0  0  0  0  0  0  0  0  0  0  0
    5.7600   -5.8874    0.0000 C   0  0  0  0  0  0  0  0  0  0  0  0
    7.1696   -5.3743    0.0000 C   0  0  0  0  0  0  0  0  0  0  0  0
    8.3186   -6.3385    0.0000 C   0  0  0  0  0  0  0  0  0  0  0  0
    8.0582   -7.8157    0.0000 C   0  0  0  0  0  0  0  0  0  0  0  0
    6.6486   -8.3287    0.0000 C   0  0  0  0  0  0  0  0  0  0  0  0
    5.4996   -7.3646    0.0000 C   0  0  0  0  0  0  0  0  0  0  0  0
  1  2  2  0
  2  3  1  0
  3  4  1  0
  4  5  1  0
  5  6  1  0
  6  7  1  0
  4  8  1  0
  8  9  1  0
  9 10  1  0
 10 11  1  0
 11 12  1  0
 12 13  1  0
 13 14  1  0
 14 15  1  0
 15 16  1  0
 16 17  1  0
 17 18  1  0
 18 19  1  0
 19 20  1  0
 19 21  1  0
 15 22  1  0
 22 23  1  0
 23 24  2  0
 23 25  1  0
 25 26  1  0
 26 27  2  0
 27 28  1  0
 28 29  2  0
 29 30  1  0
 30 31  2  0
 31 32  1  0
 32 33  2  0
 33 34  1  0
 34 35  2  0
 35 36  1  0
 36 37  2  0
 11 38  1  0
 38 39  1  0
 39 40  1  0
 40 41  1  0
 41 42  1  0
 42 43  1  0
 43 44  1  0
 44 45  1  0
 45 46  1  0
 46 47  1  0
 47 48  1  0
 48 49  1  0
 49 50  1  0
 50 51  1  0
 51 52  1  0
 52 53  1  0
 53 54  1  0
 53 55  1  0
 49 56  1  0
 56 57  1  0
 57 58  2  0
 57 59  1  0
 59 60  1  0
 60 61  2  0
 61 62  1  0
 62 63  2  0
 63 64  1  0
 64 65  2  0
 65 66  1  0
 66 67  2  0
 67 68  1  0
 68 69  2  0
 69 70  1  0
 70 71  2  0
 45 72  1  0
 72 73  1  0
 73 74  1  0
 74 75  1  0
 75 76  1  0
 76 77  1  0
 77 78  1  0
 78 79  1  0
 79 80  1  0
 79 81  1  0
 75 82  1  0
 82 83  1  0
 83 84  2  0
 83 85  1  0
 85 86  1  0
 86 87  2  0
 87 88  1  0
 88 89  2  0
 89 90  1  0
 90 91  2  0
 91 92  1  0
 92 93  2  0
 93 94  1  0
 94 95  2  0
 95 96  1  0
 96 97  2  0
 41 98  1  0
 98 99  1  0
 99100  2  0
 99101  1  0
101102  1  0
102103  2  0
103104  1  0
104105  2  0
105106  1  0
106107  2  0
107108  1  0
108109  2  0
109110  1  0
110111  2  0
111112  1  0
112113  2  0
  2114  1  0
114115  1  0
115116  2  0
116117  1  0
117118  2  0
118119  1  0
118120  1  0
120121  2  0
121122  1  0
122123  2  0
123124  1  0
124125  2  0
125126  1  0
126127  2  0
127  2  1  0
 37 23  1  0
 71 57  1  0
 97 83  1  0
113 99  1  0
121115  1  0
127122  1  0
 31 26  1  0
 37 32  1  0
 65 60  1  0
 71 66  1  0
 91 86  1  0
 97 92  1  0
107102  1  0
113108  1  0
M  END
>  <Candidate_ID>  (385) 
CAND_R2_385

>  <Candidate_Name>  (385) 
BDHDP-hydroxy

>  <Parent_Seed_ID>  (385) 
TRAIN_107

>  <Parent_Name>  (385) 
BDHDP

>  <Transformation_Code>  (385) 
hydroxy

>  <Design_Family>  (385) 
P-N-B

>  <Preparation_Type>  (385) 
Additive

>  <Synthesis_Level>  (385) 
C

>  <Parent_Tanimoto_r3>  (385) 
0.8255813953488372

>  <Max_Train_Tanimoto_r3>  (385) 
0.8255813953488372

>  <Risk_Flags>  (385) 
DOPO-core substitution route needs confirmation; high molecular weight; high DOPO count; exploratory only; excluded from formal screening

$$$$
CAND_R2_386 | BDHDP-boronic-acid
     RDKit          2D

129143  0  0  0  0  0  0  0  0999 V2000
    4.8400   -9.1766    0.0000 O   0  0  0  0  0  0  0  0  0  0  0  0
    4.0900   -7.8776    0.0000 P   0  0  0  0  0  0  0  0  0  0  0  0
    2.9410   -8.8418    0.0000 C   0  0  0  0  0  0  0  0  0  0  0  0
    1.5314   -8.3287    0.0000 N   0  0  0  0  0  0  0  0  0  0  0  0
    1.2709   -6.8515    0.0000 C   0  0  0  0  0  0  0  0  0  0  0  0
    2.4200   -5.8874    0.0000 C   0  0  0  0  0  0  0  0  0  0  0  0
    1.8098   -4.5171    0.0000 O   0  0  0  0  0  0  0  0  0  0  0  0
    0.3824   -9.2929    0.0000 C   0  0  0  0  0  0  0  0  0  0  0  0
    0.6428  -10.7701    0.0000 C   0  0  0  0  0  0  0  0  0  0  0  0
   -0.5062  -11.7343    0.0000 O   0  0  0  0  0  0  0  0  0  0  0  0
   -0.2458  -13.2115    0.0000 B   0  0  0  0  0  0  0  0  0  0  0  0
   -1.3948  -14.1757    0.0000 O   0  0  0  0  0  0  0  0  0  0  0  0
   -2.8044  -13.6627    0.0000 C   0  0  0  0  0  0  0  0  0  0  0  0
   -3.9534  -14.6269    0.0000 C   0  0  0  0  0  0  0  0  0  0  0  0
   -5.3630  -14.1138    0.0000 N   0  0  0  0  0  0  0  0  0  0  0  0
   -5.6235  -12.6366    0.0000 C   0  0  0  0  0  0  0  0  0  0  0  0
   -4.4744  -11.6724    0.0000 C   0  0  0  0  0  0  0  0  0  0  0  0
   -4.7349  -10.1952    0.0000 O   0  0  0  0  0  0  0  0  0  0  0  0
   -3.5858   -9.2311    0.0000 B   0  0  0  0  0  0  0  0  0  0  0  0
   -3.8463   -7.7538    0.0000 O   0  0  0  0  0  0  0  0  0  0  0  0
   -2.1763   -9.7441    0.0000 O   0  0  0  0  0  0  0  0  0  0  0  0
   -6.5120  -15.0780    0.0000 C   0  0  0  0  0  0  0  0  0  0  0  0
   -6.2516  -16.5552    0.0000 P   0  0  0  0  0  0  0  0  0  0  0  0
   -4.8420  -16.0422    0.0000 O   0  0  0  0  0  0  0  0  0  0  0  0
   -7.7516  -16.5552    0.0000 O   0  0  0  0  0  0  0  0  0  0  0  0
   -8.5016  -17.8543    0.0000 C   0  0  0  0  0  0  0  0  0  0  0  0
  -10.0016  -17.8543    0.0000 C   0  0  0  0  0  0  0  0  0  0  0  0
  -10.7516  -19.1533    0.0000 C   0  0  0  0  0  0  0  0  0  0  0  0
  -10.0016  -20.4523    0.0000 C   0  0  0  0  0  0  0  0  0  0  0  0
   -8.5016  -20.4523    0.0000 C   0  0  0  0  0  0  0  0  0  0  0  0
   -7.7516  -19.1533    0.0000 C   0  0  0  0  0  0  0  0  0  0  0  0
   -6.2516  -19.1533    0.0000 C   0  0  0  0  0  0  0  0  0  0  0  0
   -5.5016  -20.4523    0.0000 C   0  0  0  0  0  0  0  0  0  0  0  0
   -4.0016  -20.4523    0.0000 C   0  0  0  0  0  0  0  0  0  0  0  0
   -3.2516  -19.1533    0.0000 C   0  0  0  0  0  0  0  0  0  0  0  0
   -4.0016  -17.8543    0.0000 C   0  0  0  0  0  0  0  0  0  0  0  0
   -5.5016  -17.8543    0.0000 C   0  0  0  0  0  0  0  0  0  0  0  0
    1.1638  -13.7246    0.0000 O   0  0  0  0  0  0  0  0  0  0  0  0
    2.3128  -12.7604    0.0000 C   0  0  0  0  0  0  0  0  0  0  0  0
    3.7224  -13.2734    0.0000 C   0  0  0  0  0  0  0  0  0  0  0  0
    3.9828  -14.7506    0.0000 N   0  0  0  0  0  0  0  0  0  0  0  0
    5.3924  -15.2637    0.0000 C   0  0  0  0  0  0  0  0  0  0  0  0
    5.6529  -16.7409    0.0000 C   0  0  0  0  0  0  0  0  0  0  0  0
    7.0624  -17.2539    0.0000 O   0  0  0  0  0  0  0  0  0  0  0  0
    7.3229  -18.7311    0.0000 B   0  0  0  0  0  0  0  0  0  0  0  0
    8.7324  -19.2441    0.0000 O   0  0  0  0  0  0  0  0  0  0  0  0
    9.8815  -18.2800    0.0000 C   0  0  0  0  0  0  0  0  0  0  0  0
   11.2910  -18.7930    0.0000 C   0  0  0  0  0  0  0  0  0  0  0  0
   12.4401  -17.8288    0.0000 N   0  0  0  0  0  0  0  0  0  0  0  0
   13.8496  -18.3418    0.0000 C   0  0  0  0  0  0  0  0  0  0  0  0
   14.1101  -19.8190    0.0000 C   0  0  0  0  0  0  0  0  0  0  0  0
   15.5196  -20.3321    0.0000 O   0  0  0  0  0  0  0  0  0  0  0  0
   15.7801  -21.8093    0.0000 B   0  0  0  0  0  0  0  0  0  0  0  0
   17.1896  -22.3223    0.0000 O   0  0  0  0  0  0  0  0  0  0  0  0
   14.6310  -22.7735    0.0000 O   0  0  0  0  0  0  0  0  0  0  0  0
   12.1796  -16.3516    0.0000 C   0  0  0  0  0  0  0  0  0  0  0  0
   13.3287  -15.3874    0.0000 P   0  0  0  0  0  0  0  0  0  0  0  0
   14.0787  -16.6865    0.0000 O   0  0  0  0  0  0  0  0  0  0  0  0
   12.1796  -14.4232    0.0000 O   0  0  0  0  0  0  0  0  0  0  0  0
   12.4401  -12.9460    0.0000 C   0  0  0  0  0  0  0  0  0  0  0  0
   11.2910  -11.9818    0.0000 C   0  0  0  0  0  0  0  0  0  0  0  0
   11.5515  -10.5046    0.0000 C   0  0  0  0  0  0  0  0  0  0  0  0
   12.9610   -9.9916    0.0000 C   0  0  0  0  0  0  0  0  0  0  0  0
   14.1101  -10.9558    0.0000 C   0  0  0  0  0  0  0  0  0  0  0  0
   13.8496  -12.4330    0.0000 C   0  0  0  0  0  0  0  0  0  0  0  0
   14.9987  -13.3972    0.0000 C   0  0  0  0  0  0  0  0  0  0  0  0
   16.4082  -12.8841    0.0000 C   0  0  0  0  0  0  0  0  0  0  0  0
   17.5573  -13.8483    0.0000 C   0  0  0  0  0  0  0  0  0  0  0  0
   17.2968  -15.3255    0.0000 C   0  0  0  0  0  0  0  0  0  0  0  0
   15.8873  -15.8386    0.0000 C   0  0  0  0  0  0  0  0  0  0  0  0
   14.7382  -14.8744    0.0000 C   0  0  0  0  0  0  0  0  0  0  0  0
    6.1738  -19.6953    0.0000 O   0  0  0  0  0  0  0  0  0  0  0  0
    6.4343  -21.1725    0.0000 C   0  0  0  0  0  0  0  0  0  0  0  0
    5.2852  -22.1367    0.0000 C   0  0  0  0  0  0  0  0  0  0  0  0
    5.5457  -23.6139    0.0000 N   0  0  0  0  0  0  0  0  0  0  0  0
    4.3966  -24.5781    0.0000 C   0  0  0  0  0  0  0  0  0  0  0  0
    2.9871  -24.0650    0.0000 C   0  0  0  0  0  0  0  0  0  0  0  0
    1.8380  -25.0292    0.0000 O   0  0  0  0  0  0  0  0  0  0  0  0
    0.4285  -24.5162    0.0000 B   0  0  0  0  0  0  0  0  0  0  0  0
   -0.7206  -25.4804    0.0000 O   0  0  0  0  0  0  0  0  0  0  0  0
    0.1680  -23.0390    0.0000 O   0  0  0  0  0  0  0  0  0  0  0  0
    6.9552  -24.1269    0.0000 C   0  0  0  0  0  0  0  0  0  0  0  0
    7.2157  -25.6041    0.0000 P   0  0  0  0  0  0  0  0  0  0  0  0
    5.7157  -25.6041    0.0000 O   0  0  0  0  0  0  0  0  0  0  0  0
    8.6252  -25.0911    0.0000 O   0  0  0  0  0  0  0  0  0  0  0  0
    9.7743  -26.0553    0.0000 C   0  0  0  0  0  0  0  0  0  0  0  0
   11.1838  -25.5423    0.0000 C   0  0  0  0  0  0  0  0  0  0  0  0
   12.3329  -26.5064    0.0000 C   0  0  0  0  0  0  0  0  0  0  0  0
   12.0724  -27.9837    0.0000 C   0  0  0  0  0  0  0  0  0  0  0  0
   10.6629  -28.4967    0.0000 C   0  0  0  0  0  0  0  0  0  0  0  0
    9.5138  -27.5325    0.0000 C   0  0  0  0  0  0  0  0  0  0  0  0
    8.1043  -28.0455    0.0000 C   0  0  0  0  0  0  0  0  0  0  0  0
    7.8438  -29.5227    0.0000 C   0  0  0  0  0  0  0  0  0  0  0  0
    6.4343  -30.0358    0.0000 C   0  0  0  0  0  0  0  0  0  0  0  0
    5.2852  -29.0716    0.0000 C   0  0  0  0  0  0  0  0  0  0  0  0
    5.5457  -27.5944    0.0000 C   0  0  0  0  0  0  0  0  0  0  0  0
    6.9552  -27.0813    0.0000 C   0  0  0  0  0  0  0  0  0  0  0  0
    2.8338  -15.7148    0.0000 C   0  0  0  0  0  0  0  0  0  0  0  0
    3.0943  -17.1920    0.0000 P   0  0  0  0  0  0  0  0  0  0  0  0
    4.5038  -16.6790    0.0000 O   0  0  0  0  0  0  0  0  0  0  0  0
    1.5943  -17.1920    0.0000 O   0  0  0  0  0  0  0  0  0  0  0  0
    0.8443  -18.4911    0.0000 C   0  0  0  0  0  0  0  0  0  0  0  0
   -0.6557  -18.4911    0.0000 C   0  0  0  0  0  0  0  0  0  0  0  0
   -1.4057  -19.7901    0.0000 C   0  0  0  0  0  0  0  0  0  0  0  0
   -0.6557  -21.0891    0.0000 C   0  0  0  0  0  0  0  0  0  0  0  0
    0.8443  -21.0891    0.0000 C   0  0  0  0  0  0  0  0  0  0  0  0
    1.5943  -19.7901    0.0000 C   0  0  0  0  0  0  0  0  0  0  0  0
    3.0943  -19.7901    0.0000 C   0  0  0  0  0  0  0  0  0  0  0  0
    3.8443  -21.0891    0.0000 C   0  0  0  0  0  0  0  0  0  0  0  0
    5.3443  -21.0891    0.0000 C   0  0  0  0  0  0  0  0  0  0  0  0
    6.0943  -19.7901    0.0000 C   0  0  0  0  0  0  0  0  0  0  0  0
    5.3443  -18.4911    0.0000 C   0  0  0  0  0  0  0  0  0  0  0  0
    3.8443  -18.4911    0.0000 C   0  0  0  0  0  0  0  0  0  0  0  0
    2.9410   -6.9134    0.0000 O   0  0  0  0  0  0  0  0  0  0  0  0
    3.2014   -5.4362    0.0000 C   0  0  0  0  0  0  0  0  0  0  0  0
    2.0524   -4.4720    0.0000 C   0  0  0  0  0  0  0  0  0  0  0  0
    2.3128   -2.9948    0.0000 C   0  0  0  0  0  0  0  0  0  0  0  0
    3.7224   -2.4818    0.0000 C   0  0  0  0  0  0  0  0  0  0  0  0
    3.9828   -1.0046    0.0000 B   0  0  0  0  0  0  0  0  0  0  0  0
    2.8338   -0.0404    0.0000 O   0  0  0  0  0  0  0  0  0  0  0  0
    5.3924   -0.4915    0.0000 O   0  0  0  0  0  0  0  0  0  0  0  0
    4.8714   -3.4460    0.0000 C   0  0  0  0  0  0  0  0  0  0  0  0
    4.6110   -4.9232    0.0000 C   0  0  0  0  0  0  0  0  0  0  0  0
    5.7600   -5.8874    0.0000 C   0  0  0  0  0  0  0  0  0  0  0  0
    7.1696   -5.3743    0.0000 C   0  0  0  0  0  0  0  0  0  0  0  0
    8.3186   -6.3385    0.0000 C   0  0  0  0  0  0  0  0  0  0  0  0
    8.0582   -7.8157    0.0000 C   0  0  0  0  0  0  0  0  0  0  0  0
    6.6486   -8.3287    0.0000 C   0  0  0  0  0  0  0  0  0  0  0  0
    5.4996   -7.3646    0.0000 C   0  0  0  0  0  0  0  0  0  0  0  0
  1  2  2  0
  2  3  1  0
  3  4  1  0
  4  5  1  0
  5  6  1  0
  6  7  1  0
  4  8  1  0
  8  9  1  0
  9 10  1  0
 10 11  1  0
 11 12  1  0
 12 13  1  0
 13 14  1  0
 14 15  1  0
 15 16  1  0
 16 17  1  0
 17 18  1  0
 18 19  1  0
 19 20  1  0
 19 21  1  0
 15 22  1  0
 22 23  1  0
 23 24  2  0
 23 25  1  0
 25 26  1  0
 26 27  2  0
 27 28  1  0
 28 29  2  0
 29 30  1  0
 30 31  2  0
 31 32  1  0
 32 33  2  0
 33 34  1  0
 34 35  2  0
 35 36  1  0
 36 37  2  0
 11 38  1  0
 38 39  1  0
 39 40  1  0
 40 41  1  0
 41 42  1  0
 42 43  1  0
 43 44  1  0
 44 45  1  0
 45 46  1  0
 46 47  1  0
 47 48  1  0
 48 49  1  0
 49 50  1  0
 50 51  1  0
 51 52  1  0
 52 53  1  0
 53 54  1  0
 53 55  1  0
 49 56  1  0
 56 57  1  0
 57 58  2  0
 57 59  1  0
 59 60  1  0
 60 61  2  0
 61 62  1  0
 62 63  2  0
 63 64  1  0
 64 65  2  0
 65 66  1  0
 66 67  2  0
 67 68  1  0
 68 69  2  0
 69 70  1  0
 70 71  2  0
 45 72  1  0
 72 73  1  0
 73 74  1  0
 74 75  1  0
 75 76  1  0
 76 77  1  0
 77 78  1  0
 78 79  1  0
 79 80  1  0
 79 81  1  0
 75 82  1  0
 82 83  1  0
 83 84  2  0
 83 85  1  0
 85 86  1  0
 86 87  2  0
 87 88  1  0
 88 89  2  0
 89 90  1  0
 90 91  2  0
 91 92  1  0
 92 93  2  0
 93 94  1  0
 94 95  2  0
 95 96  1  0
 96 97  2  0
 41 98  1  0
 98 99  1  0
 99100  2  0
 99101  1  0
101102  1  0
102103  2  0
103104  1  0
104105  2  0
105106  1  0
106107  2  0
107108  1  0
108109  2  0
109110  1  0
110111  2  0
111112  1  0
112113  2  0
  2114  1  0
114115  1  0
115116  2  0
116117  1  0
117118  2  0
118119  1  0
119120  1  0
119121  1  0
118122  1  0
122123  2  0
123124  1  0
124125  2  0
125126  1  0
126127  2  0
127128  1  0
128129  2  0
129  2  1  0
 37 23  1  0
 71 57  1  0
 97 83  1  0
113 99  1  0
123115  1  0
129124  1  0
 31 26  1  0
 37 32  1  0
 65 60  1  0
 71 66  1  0
 91 86  1  0
 97 92  1  0
107102  1  0
113108  1  0
M  END
>  <Candidate_ID>  (386) 
CAND_R2_386

>  <Candidate_Name>  (386) 
BDHDP-boronic-acid

>  <Parent_Seed_ID>  (386) 
TRAIN_107

>  <Parent_Name>  (386) 
BDHDP

>  <Transformation_Code>  (386) 
boronic_acid

>  <Design_Family>  (386) 
P-N-B

>  <Preparation_Type>  (386) 
Additive

>  <Synthesis_Level>  (386) 
C

>  <Parent_Tanimoto_r3>  (386) 
0.8160919540229885

>  <Max_Train_Tanimoto_r3>  (386) 
0.8160919540229885

>  <Risk_Flags>  (386) 
DOPO-core substitution route needs confirmation; high molecular weight; high DOPO count; exploratory only; excluded from formal screening

$$$$
CAND_R2_387 | BDHDP-glycidyloxy
     RDKit          2D

131146  0  0  0  0  0  0  0  0999 V2000
    4.8400   -9.1766    0.0000 O   0  0  0  0  0  0  0  0  0  0  0  0
    4.0900   -7.8776    0.0000 P   0  0  0  0  0  0  0  0  0  0  0  0
    2.9410   -8.8418    0.0000 C   0  0  0  0  0  0  0  0  0  0  0  0
    1.5314   -8.3287    0.0000 N   0  0  0  0  0  0  0  0  0  0  0  0
    1.2709   -6.8515    0.0000 C   0  0  0  0  0  0  0  0  0  0  0  0
    2.4200   -5.8874    0.0000 C   0  0  0  0  0  0  0  0  0  0  0  0
    1.8098   -4.5171    0.0000 O   0  0  0  0  0  0  0  0  0  0  0  0
    0.3824   -9.2929    0.0000 C   0  0  0  0  0  0  0  0  0  0  0  0
    0.6428  -10.7701    0.0000 C   0  0  0  0  0  0  0  0  0  0  0  0
   -0.5062  -11.7343    0.0000 O   0  0  0  0  0  0  0  0  0  0  0  0
   -0.2458  -13.2115    0.0000 B   0  0  0  0  0  0  0  0  0  0  0  0
   -1.3948  -14.1757    0.0000 O   0  0  0  0  0  0  0  0  0  0  0  0
   -2.8044  -13.6627    0.0000 C   0  0  0  0  0  0  0  0  0  0  0  0
   -3.9534  -14.6269    0.0000 C   0  0  0  0  0  0  0  0  0  0  0  0
   -5.3630  -14.1138    0.0000 N   0  0  0  0  0  0  0  0  0  0  0  0
   -5.6235  -12.6366    0.0000 C   0  0  0  0  0  0  0  0  0  0  0  0
   -4.4744  -11.6724    0.0000 C   0  0  0  0  0  0  0  0  0  0  0  0
   -4.7349  -10.1952    0.0000 O   0  0  0  0  0  0  0  0  0  0  0  0
   -3.5858   -9.2311    0.0000 B   0  0  0  0  0  0  0  0  0  0  0  0
   -3.8463   -7.7538    0.0000 O   0  0  0  0  0  0  0  0  0  0  0  0
   -2.1763   -9.7441    0.0000 O   0  0  0  0  0  0  0  0  0  0  0  0
   -6.5120  -15.0780    0.0000 C   0  0  0  0  0  0  0  0  0  0  0  0
   -6.2516  -16.5552    0.0000 P   0  0  0  0  0  0  0  0  0  0  0  0
   -4.8420  -16.0422    0.0000 O   0  0  0  0  0  0  0  0  0  0  0  0
   -7.7516  -16.5552    0.0000 O   0  0  0  0  0  0  0  0  0  0  0  0
   -8.5016  -17.8543    0.0000 C   0  0  0  0  0  0  0  0  0  0  0  0
  -10.0016  -17.8543    0.0000 C   0  0  0  0  0  0  0  0  0  0  0  0
  -10.7516  -19.1533    0.0000 C   0  0  0  0  0  0  0  0  0  0  0  0
  -10.0016  -20.4523    0.0000 C   0  0  0  0  0  0  0  0  0  0  0  0
   -8.5016  -20.4523    0.0000 C   0  0  0  0  0  0  0  0  0  0  0  0
   -7.7516  -19.1533    0.0000 C   0  0  0  0  0  0  0  0  0  0  0  0
   -6.2516  -19.1533    0.0000 C   0  0  0  0  0  0  0  0  0  0  0  0
   -5.5016  -20.4523    0.0000 C   0  0  0  0  0  0  0  0  0  0  0  0
   -4.0016  -20.4523    0.0000 C   0  0  0  0  0  0  0  0  0  0  0  0
   -3.2516  -19.1533    0.0000 C   0  0  0  0  0  0  0  0  0  0  0  0
   -4.0016  -17.8543    0.0000 C   0  0  0  0  0  0  0  0  0  0  0  0
   -5.5016  -17.8543    0.0000 C   0  0  0  0  0  0  0  0  0  0  0  0
    1.1638  -13.7246    0.0000 O   0  0  0  0  0  0  0  0  0  0  0  0
    2.3128  -12.7604    0.0000 C   0  0  0  0  0  0  0  0  0  0  0  0
    3.7224  -13.2734    0.0000 C   0  0  0  0  0  0  0  0  0  0  0  0
    3.9828  -14.7506    0.0000 N   0  0  0  0  0  0  0  0  0  0  0  0
    5.3924  -15.2637    0.0000 C   0  0  0  0  0  0  0  0  0  0  0  0
    5.6529  -16.7409    0.0000 C   0  0  0  0  0  0  0  0  0  0  0  0
    7.0624  -17.2539    0.0000 O   0  0  0  0  0  0  0  0  0  0  0  0
    7.3229  -18.7311    0.0000 B   0  0  0  0  0  0  0  0  0  0  0  0
    8.7324  -19.2441    0.0000 O   0  0  0  0  0  0  0  0  0  0  0  0
    9.8815  -18.2800    0.0000 C   0  0  0  0  0  0  0  0  0  0  0  0
   11.2910  -18.7930    0.0000 C   0  0  0  0  0  0  0  0  0  0  0  0
   12.4401  -17.8288    0.0000 N   0  0  0  0  0  0  0  0  0  0  0  0
   13.8496  -18.3418    0.0000 C   0  0  0  0  0  0  0  0  0  0  0  0
   14.1101  -19.8190    0.0000 C   0  0  0  0  0  0  0  0  0  0  0  0
   15.5196  -20.3321    0.0000 O   0  0  0  0  0  0  0  0  0  0  0  0
   15.7801  -21.8093    0.0000 B   0  0  0  0  0  0  0  0  0  0  0  0
   17.1896  -22.3223    0.0000 O   0  0  0  0  0  0  0  0  0  0  0  0
   14.6310  -22.7735    0.0000 O   0  0  0  0  0  0  0  0  0  0  0  0
   12.1796  -16.3516    0.0000 C   0  0  0  0  0  0  0  0  0  0  0  0
   13.3287  -15.3874    0.0000 P   0  0  0  0  0  0  0  0  0  0  0  0
   14.0787  -16.6865    0.0000 O   0  0  0  0  0  0  0  0  0  0  0  0
   12.1796  -14.4232    0.0000 O   0  0  0  0  0  0  0  0  0  0  0  0
   12.4401  -12.9460    0.0000 C   0  0  0  0  0  0  0  0  0  0  0  0
   11.2910  -11.9818    0.0000 C   0  0  0  0  0  0  0  0  0  0  0  0
   11.5515  -10.5046    0.0000 C   0  0  0  0  0  0  0  0  0  0  0  0
   12.9610   -9.9916    0.0000 C   0  0  0  0  0  0  0  0  0  0  0  0
   14.1101  -10.9558    0.0000 C   0  0  0  0  0  0  0  0  0  0  0  0
   13.8496  -12.4330    0.0000 C   0  0  0  0  0  0  0  0  0  0  0  0
   14.9987  -13.3972    0.0000 C   0  0  0  0  0  0  0  0  0  0  0  0
   16.4082  -12.8841    0.0000 C   0  0  0  0  0  0  0  0  0  0  0  0
   17.5573  -13.8483    0.0000 C   0  0  0  0  0  0  0  0  0  0  0  0
   17.2968  -15.3255    0.0000 C   0  0  0  0  0  0  0  0  0  0  0  0
   15.8873  -15.8386    0.0000 C   0  0  0  0  0  0  0  0  0  0  0  0
   14.7382  -14.8744    0.0000 C   0  0  0  0  0  0  0  0  0  0  0  0
    6.1738  -19.6953    0.0000 O   0  0  0  0  0  0  0  0  0  0  0  0
    6.4343  -21.1725    0.0000 C   0  0  0  0  0  0  0  0  0  0  0  0
    5.2852  -22.1367    0.0000 C   0  0  0  0  0  0  0  0  0  0  0  0
    5.5457  -23.6139    0.0000 N   0  0  0  0  0  0  0  0  0  0  0  0
    4.3966  -24.5781    0.0000 C   0  0  0  0  0  0  0  0  0  0  0  0
    2.9871  -24.0650    0.0000 C   0  0  0  0  0  0  0  0  0  0  0  0
    1.8380  -25.0292    0.0000 O   0  0  0  0  0  0  0  0  0  0  0  0
    0.4285  -24.5162    0.0000 B   0  0  0  0  0  0  0  0  0  0  0  0
   -0.7206  -25.4804    0.0000 O   0  0  0  0  0  0  0  0  0  0  0  0
    0.1680  -23.0390    0.0000 O   0  0  0  0  0  0  0  0  0  0  0  0
    6.9552  -24.1269    0.0000 C   0  0  0  0  0  0  0  0  0  0  0  0
    7.2157  -25.6041    0.0000 P   0  0  0  0  0  0  0  0  0  0  0  0
    5.7157  -25.6041    0.0000 O   0  0  0  0  0  0  0  0  0  0  0  0
    8.6252  -25.0911    0.0000 O   0  0  0  0  0  0  0  0  0  0  0  0
    9.7743  -26.0553    0.0000 C   0  0  0  0  0  0  0  0  0  0  0  0
   11.1838  -25.5423    0.0000 C   0  0  0  0  0  0  0  0  0  0  0  0
   12.3329  -26.5064    0.0000 C   0  0  0  0  0  0  0  0  0  0  0  0
   12.0724  -27.9837    0.0000 C   0  0  0  0  0  0  0  0  0  0  0  0
   10.6629  -28.4967    0.0000 C   0  0  0  0  0  0  0  0  0  0  0  0
    9.5138  -27.5325    0.0000 C   0  0  0  0  0  0  0  0  0  0  0  0
    8.1043  -28.0455    0.0000 C   0  0  0  0  0  0  0  0  0  0  0  0
    7.8438  -29.5227    0.0000 C   0  0  0  0  0  0  0  0  0  0  0  0
    6.4343  -30.0358    0.0000 C   0  0  0  0  0  0  0  0  0  0  0  0
    5.2852  -29.0716    0.0000 C   0  0  0  0  0  0  0  0  0  0  0  0
    5.5457  -27.5944    0.0000 C   0  0  0  0  0  0  0  0  0  0  0  0
    6.9552  -27.0813    0.0000 C   0  0  0  0  0  0  0  0  0  0  0  0
    2.8338  -15.7148    0.0000 C   0  0  0  0  0  0  0  0  0  0  0  0
    3.0943  -17.1920    0.0000 P   0  0  0  0  0  0  0  0  0  0  0  0
    4.5038  -16.6790    0.0000 O   0  0  0  0  0  0  0  0  0  0  0  0
    1.5943  -17.1920    0.0000 O   0  0  0  0  0  0  0  0  0  0  0  0
    0.8443  -18.4911    0.0000 C   0  0  0  0  0  0  0  0  0  0  0  0
   -0.6557  -18.4911    0.0000 C   0  0  0  0  0  0  0  0  0  0  0  0
   -1.4057  -19.7901    0.0000 C   0  0  0  0  0  0  0  0  0  0  0  0
   -0.6557  -21.0891    0.0000 C   0  0  0  0  0  0  0  0  0  0  0  0
    0.8443  -21.0891    0.0000 C   0  0  0  0  0  0  0  0  0  0  0  0
    1.5943  -19.7901    0.0000 C   0  0  0  0  0  0  0  0  0  0  0  0
    3.0943  -19.7901    0.0000 C   0  0  0  0  0  0  0  0  0  0  0  0
    3.8443  -21.0891    0.0000 C   0  0  0  0  0  0  0  0  0  0  0  0
    5.3443  -21.0891    0.0000 C   0  0  0  0  0  0  0  0  0  0  0  0
    6.0943  -19.7901    0.0000 C   0  0  0  0  0  0  0  0  0  0  0  0
    5.3443  -18.4911    0.0000 C   0  0  0  0  0  0  0  0  0  0  0  0
    3.8443  -18.4911    0.0000 C   0  0  0  0  0  0  0  0  0  0  0  0
    2.9410   -6.9134    0.0000 O   0  0  0  0  0  0  0  0  0  0  0  0
    3.2014   -5.4362    0.0000 C   0  0  0  0  0  0  0  0  0  0  0  0
    2.0524   -4.4720    0.0000 C   0  0  0  0  0  0  0  0  0  0  0  0
    2.3128   -2.9948    0.0000 C   0  0  0  0  0  0  0  0  0  0  0  0
    3.7224   -2.4818    0.0000 C   0  0  0  0  0  0  0  0  0  0  0  0
    3.9828   -1.0046    0.0000 O   0  0  0  0  0  0  0  0  0  0  0  0
    2.8338   -0.0404    0.0000 C   0  0  0  0  0  0  0  0  0  0  0  0
    3.0943    1.4368    0.0000 C   0  0  0  0  0  0  0  0  0  0  0  0
    4.0584    2.5859    0.0000 C   0  0  0  0  0  0  0  0  0  0  0  0
    2.5812    2.8464    0.0000 O   0  0  0  0  0  0  0  0  0  0  0  0
    4.8714   -3.4460    0.0000 C   0  0  0  0  0  0  0  0  0  0  0  0
    4.6110   -4.9232    0.0000 C   0  0  0  0  0  0  0  0  0  0  0  0
    5.7600   -5.8874    0.0000 C   0  0  0  0  0  0  0  0  0  0  0  0
    7.1696   -5.3743    0.0000 C   0  0  0  0  0  0  0  0  0  0  0  0
    8.3186   -6.3385    0.0000 C   0  0  0  0  0  0  0  0  0  0  0  0
    8.0582   -7.8157    0.0000 C   0  0  0  0  0  0  0  0  0  0  0  0
    6.6486   -8.3287    0.0000 C   0  0  0  0  0  0  0  0  0  0  0  0
    5.4996   -7.3646    0.0000 C   0  0  0  0  0  0  0  0  0  0  0  0
  1  2  2  0
  2  3  1  0
  3  4  1  0
  4  5  1  0
  5  6  1  0
  6  7  1  0
  4  8  1  0
  8  9  1  0
  9 10  1  0
 10 11  1  0
 11 12  1  0
 12 13  1  0
 13 14  1  0
 14 15  1  0
 15 16  1  0
 16 17  1  0
 17 18  1  0
 18 19  1  0
 19 20  1  0
 19 21  1  0
 15 22  1  0
 22 23  1  0
 23 24  2  0
 23 25  1  0
 25 26  1  0
 26 27  2  0
 27 28  1  0
 28 29  2  0
 29 30  1  0
 30 31  2  0
 31 32  1  0
 32 33  2  0
 33 34  1  0
 34 35  2  0
 35 36  1  0
 36 37  2  0
 11 38  1  0
 38 39  1  0
 39 40  1  0
 40 41  1  0
 41 42  1  0
 42 43  1  0
 43 44  1  0
 44 45  1  0
 45 46  1  0
 46 47  1  0
 47 48  1  0
 48 49  1  0
 49 50  1  0
 50 51  1  0
 51 52  1  0
 52 53  1  0
 53 54  1  0
 53 55  1  0
 49 56  1  0
 56 57  1  0
 57 58  2  0
 57 59  1  0
 59 60  1  0
 60 61  2  0
 61 62  1  0
 62 63  2  0
 63 64  1  0
 64 65  2  0
 65 66  1  0
 66 67  2  0
 67 68  1  0
 68 69  2  0
 69 70  1  0
 70 71  2  0
 45 72  1  0
 72 73  1  0
 73 74  1  0
 74 75  1  0
 75 76  1  0
 76 77  1  0
 77 78  1  0
 78 79  1  0
 79 80  1  0
 79 81  1  0
 75 82  1  0
 82 83  1  0
 83 84  2  0
 83 85  1  0
 85 86  1  0
 86 87  2  0
 87 88  1  0
 88 89  2  0
 89 90  1  0
 90 91  2  0
 91 92  1  0
 92 93  2  0
 93 94  1  0
 94 95  2  0
 95 96  1  0
 96 97  2  0
 41 98  1  0
 98 99  1  0
 99100  2  0
 99101  1  0
101102  1  0
102103  2  0
103104  1  0
104105  2  0
105106  1  0
106107  2  0
107108  1  0
108109  2  0
109110  1  0
110111  2  0
111112  1  0
112113  2  0
  2114  1  0
114115  1  0
115116  2  0
116117  1  0
117118  2  0
118119  1  0
119120  1  0
120121  1  0
121122  1  0
122123  1  0
118124  1  0
124125  2  0
125126  1  0
126127  2  0
127128  1  0
128129  2  0
129130  1  0
130131  2  0
131  2  1  0
 37 23  1  0
 71 57  1  0
 97 83  1  0
113 99  1  0
125115  1  0
131126  1  0
 31 26  1  0
 37 32  1  0
 65 60  1  0
 71 66  1  0
 91 86  1  0
 97 92  1  0
107102  1  0
113108  1  0
123121  1  0
M  END
>  <Candidate_ID>  (387) 
CAND_R2_387

>  <Candidate_Name>  (387) 
BDHDP-glycidyloxy

>  <Parent_Seed_ID>  (387) 
TRAIN_107

>  <Parent_Name>  (387) 
BDHDP

>  <Transformation_Code>  (387) 
glycidyloxy

>  <Design_Family>  (387) 
P-N-B

>  <Preparation_Type>  (387) 
Co-curing

>  <Synthesis_Level>  (387) 
C

>  <Parent_Tanimoto_r3>  (387) 
0.7171717171717171

>  <Max_Train_Tanimoto_r3>  (387) 
0.7171717171717171

>  <Risk_Flags>  (387) 
DOPO-core substitution route needs confirmation; high molecular weight; high DOPO count; exploratory only; excluded from formal screening

$$$$
CAND_R2_388 | BDHDP-OH-glycidyl
     RDKit          2D

130145  0  0  0  0  0  0  0  0999 V2000
   -3.8463  -10.7083    0.0000 O   0  0  0  0  0  0  0  0  0  0  0  0
   -3.5858   -9.2311    0.0000 P   0  0  0  0  0  0  0  0  0  0  0  0
   -2.1763   -9.7441    0.0000 C   0  0  0  0  0  0  0  0  0  0  0  0
   -1.0272   -8.7799    0.0000 N   0  0  0  0  0  0  0  0  0  0  0  0
   -1.2877   -7.3027    0.0000 C   0  0  0  0  0  0  0  0  0  0  0  0
   -2.6972   -6.7897    0.0000 C   0  0  0  0  0  0  0  0  0  0  0  0
   -2.9577   -5.3124    0.0000 O   0  0  0  0  0  0  0  0  0  0  0  0
   -4.3672   -4.7994    0.0000 C   0  0  0  0  0  0  0  0  0  0  0  0
   -4.6277   -3.3222    0.0000 C   0  0  0  0  0  0  0  0  0  0  0  0
   -4.1147   -1.9127    0.0000 C   0  0  0  0  0  0  0  0  0  0  0  0
   -5.5919   -2.1731    0.0000 O   0  0  0  0  0  0  0  0  0  0  0  0
    0.3824   -9.2929    0.0000 C   0  0  0  0  0  0  0  0  0  0  0  0
    0.6428  -10.7701    0.0000 C   0  0  0  0  0  0  0  0  0  0  0  0
    2.0524  -11.2832    0.0000 O   0  0  0  0  0  0  0  0  0  0  0  0
    2.3128  -12.7604    0.0000 B   0  0  0  0  0  0  0  0  0  0  0  0
    3.7224  -13.2734    0.0000 O   0  0  0  0  0  0  0  0  0  0  0  0
    4.8714  -12.3092    0.0000 C   0  0  0  0  0  0  0  0  0  0  0  0
    6.2810  -12.8223    0.0000 C   0  0  0  0  0  0  0  0  0  0  0  0
    7.4300  -11.8581    0.0000 N   0  0  0  0  0  0  0  0  0  0  0  0
    7.1696  -10.3809    0.0000 C   0  0  0  0  0  0  0  0  0  0  0  0
    5.7600   -9.8678    0.0000 C   0  0  0  0  0  0  0  0  0  0  0  0
    5.4996   -8.3906    0.0000 O   0  0  0  0  0  0  0  0  0  0  0  0
    4.0900   -7.8776    0.0000 B   0  0  0  0  0  0  0  0  0  0  0  0
    3.8296   -6.4004    0.0000 O   0  0  0  0  0  0  0  0  0  0  0  0
    2.9410   -8.8418    0.0000 O   0  0  0  0  0  0  0  0  0  0  0  0
    8.8396  -12.3711    0.0000 C   0  0  0  0  0  0  0  0  0  0  0  0
    9.1001  -13.8483    0.0000 P   0  0  0  0  0  0  0  0  0  0  0  0
    7.6001  -13.8483    0.0000 O   0  0  0  0  0  0  0  0  0  0  0  0
   10.5096  -13.3353    0.0000 O   0  0  0  0  0  0  0  0  0  0  0  0
   11.6587  -14.2995    0.0000 C   0  0  0  0  0  0  0  0  0  0  0  0
   13.0682  -13.7864    0.0000 C   0  0  0  0  0  0  0  0  0  0  0  0
   14.2173  -14.7506    0.0000 C   0  0  0  0  0  0  0  0  0  0  0  0
   13.9568  -16.2278    0.0000 C   0  0  0  0  0  0  0  0  0  0  0  0
   12.5473  -16.7409    0.0000 C   0  0  0  0  0  0  0  0  0  0  0  0
   11.3982  -15.7767    0.0000 C   0  0  0  0  0  0  0  0  0  0  0  0
    9.9887  -16.2897    0.0000 C   0  0  0  0  0  0  0  0  0  0  0  0
    9.7282  -17.7669    0.0000 C   0  0  0  0  0  0  0  0  0  0  0  0
    8.3186  -18.2800    0.0000 C   0  0  0  0  0  0  0  0  0  0  0  0
    7.1696  -17.3158    0.0000 C   0  0  0  0  0  0  0  0  0  0  0  0
    7.4300  -15.8386    0.0000 C   0  0  0  0  0  0  0  0  0  0  0  0
    8.8396  -15.3255    0.0000 C   0  0  0  0  0  0  0  0  0  0  0  0
    1.1638  -13.7246    0.0000 O   0  0  0  0  0  0  0  0  0  0  0  0
   -0.2458  -13.2115    0.0000 C   0  0  0  0  0  0  0  0  0  0  0  0
   -1.3948  -14.1757    0.0000 C   0  0  0  0  0  0  0  0  0  0  0  0
   -1.1344  -15.6529    0.0000 N   0  0  0  0  0  0  0  0  0  0  0  0
   -2.2834  -16.6171    0.0000 C   0  0  0  0  0  0  0  0  0  0  0  0
   -2.0230  -18.0943    0.0000 C   0  0  0  0  0  0  0  0  0  0  0  0
   -3.1720  -19.0585    0.0000 O   0  0  0  0  0  0  0  0  0  0  0  0
   -2.9116  -20.5357    0.0000 B   0  0  0  0  0  0  0  0  0  0  0  0
   -4.0606  -21.4999    0.0000 O   0  0  0  0  0  0  0  0  0  0  0  0
   -5.4702  -20.9869    0.0000 C   0  0  0  0  0  0  0  0  0  0  0  0
   -6.6192  -21.9510    0.0000 C   0  0  0  0  0  0  0  0  0  0  0  0
   -8.0288  -21.4380    0.0000 N   0  0  0  0  0  0  0  0  0  0  0  0
   -9.1778  -22.4022    0.0000 C   0  0  0  0  0  0  0  0  0  0  0  0
   -8.9174  -23.8794    0.0000 C   0  0  0  0  0  0  0  0  0  0  0  0
  -10.0664  -24.8436    0.0000 O   0  0  0  0  0  0  0  0  0  0  0  0
   -9.8060  -26.3208    0.0000 B   0  0  0  0  0  0  0  0  0  0  0  0
  -10.9550  -27.2850    0.0000 O   0  0  0  0  0  0  0  0  0  0  0  0
   -8.3964  -26.8338    0.0000 O   0  0  0  0  0  0  0  0  0  0  0  0
   -8.2892  -19.9608    0.0000 C   0  0  0  0  0  0  0  0  0  0  0  0
   -9.6988  -19.4478    0.0000 P   0  0  0  0  0  0  0  0  0  0  0  0
   -9.9592  -20.9250    0.0000 O   0  0  0  0  0  0  0  0  0  0  0  0
   -8.9488  -18.1487    0.0000 O   0  0  0  0  0  0  0  0  0  0  0  0
   -9.6988  -16.8497    0.0000 C   0  0  0  0  0  0  0  0  0  0  0  0
   -8.9488  -15.5507    0.0000 C   0  0  0  0  0  0  0  0  0  0  0  0
   -9.6988  -14.2516    0.0000 C   0  0  0  0  0  0  0  0  0  0  0  0
  -11.1988  -14.2516    0.0000 C   0  0  0  0  0  0  0  0  0  0  0  0
  -11.9488  -15.5507    0.0000 C   0  0  0  0  0  0  0  0  0  0  0  0
  -11.1988  -16.8497    0.0000 C   0  0  0  0  0  0  0  0  0  0  0  0
  -11.9488  -18.1487    0.0000 C   0  0  0  0  0  0  0  0  0  0  0  0
  -13.4488  -18.1487    0.0000 C   0  0  0  0  0  0  0  0  0  0  0  0
  -14.1988  -19.4478    0.0000 C   0  0  0  0  0  0  0  0  0  0  0  0
  -13.4488  -20.7468    0.0000 C   0  0  0  0  0  0  0  0  0  0  0  0
  -11.9488  -20.7468    0.0000 C   0  0  0  0  0  0  0  0  0  0  0  0
  -11.1988  -19.4478    0.0000 C   0  0  0  0  0  0  0  0  0  0  0  0
   -1.5020  -21.0487    0.0000 O   0  0  0  0  0  0  0  0  0  0  0  0
   -1.2415  -22.5260    0.0000 C   0  0  0  0  0  0  0  0  0  0  0  0
    0.1680  -23.0390    0.0000 C   0  0  0  0  0  0  0  0  0  0  0  0
    0.4285  -24.5162    0.0000 N   0  0  0  0  0  0  0  0  0  0  0  0
    1.8380  -25.0292    0.0000 C   0  0  0  0  0  0  0  0  0  0  0  0
    2.9871  -24.0650    0.0000 C   0  0  0  0  0  0  0  0  0  0  0  0
    4.3966  -24.5781    0.0000 O   0  0  0  0  0  0  0  0  0  0  0  0
    5.5457  -23.6139    0.0000 B   0  0  0  0  0  0  0  0  0  0  0  0
    6.9552  -24.1269    0.0000 O   0  0  0  0  0  0  0  0  0  0  0  0
    5.2852  -22.1367    0.0000 O   0  0  0  0  0  0  0  0  0  0  0  0
   -0.7206  -25.4804    0.0000 C   0  0  0  0  0  0  0  0  0  0  0  0
   -0.4601  -26.9576    0.0000 P   0  0  0  0  0  0  0  0  0  0  0  0
    0.9494  -26.4446    0.0000 O   0  0  0  0  0  0  0  0  0  0  0  0
   -1.9601  -26.9576    0.0000 O   0  0  0  0  0  0  0  0  0  0  0  0
   -2.7101  -28.2566    0.0000 C   0  0  0  0  0  0  0  0  0  0  0  0
   -4.2101  -28.2566    0.0000 C   0  0  0  0  0  0  0  0  0  0  0  0
   -4.9601  -29.5557    0.0000 C   0  0  0  0  0  0  0  0  0  0  0  0
   -4.2101  -30.8547    0.0000 C   0  0  0  0  0  0  0  0  0  0  0  0
   -2.7101  -30.8547    0.0000 C   0  0  0  0  0  0  0  0  0  0  0  0
   -1.9601  -29.5557    0.0000 C   0  0  0  0  0  0  0  0  0  0  0  0
   -0.4601  -29.5557    0.0000 C   0  0  0  0  0  0  0  0  0  0  0  0
    0.2899  -30.8547    0.0000 C   0  0  0  0  0  0  0  0  0  0  0  0
    1.7899  -30.8547    0.0000 C   0  0  0  0  0  0  0  0  0  0  0  0
    2.5399  -29.5557    0.0000 C   0  0  0  0  0  0  0  0  0  0  0  0
    1.7899  -28.2566    0.0000 C   0  0  0  0  0  0  0  0  0  0  0  0
    0.2899  -28.2566    0.0000 C   0  0  0  0  0  0  0  0  0  0  0  0
    0.2752  -16.1660    0.0000 C   0  0  0  0  0  0  0  0  0  0  0  0
    0.5356  -17.6432    0.0000 P   0  0  0  0  0  0  0  0  0  0  0  0
   -0.9644  -17.6432    0.0000 O   0  0  0  0  0  0  0  0  0  0  0  0
    1.9452  -17.1301    0.0000 O   0  0  0  0  0  0  0  0  0  0  0  0
    3.0943  -18.0943    0.0000 C   0  0  0  0  0  0  0  0  0  0  0  0
    4.5038  -17.5813    0.0000 C   0  0  0  0  0  0  0  0  0  0  0  0
    5.6529  -18.5455    0.0000 C   0  0  0  0  0  0  0  0  0  0  0  0
    5.3924  -20.0227    0.0000 C   0  0  0  0  0  0  0  0  0  0  0  0
    3.9828  -20.5357    0.0000 C   0  0  0  0  0  0  0  0  0  0  0  0
    2.8338  -19.5715    0.0000 C   0  0  0  0  0  0  0  0  0  0  0  0
    1.4242  -20.0846    0.0000 C   0  0  0  0  0  0  0  0  0  0  0  0
    1.1638  -21.5618    0.0000 C   0  0  0  0  0  0  0  0  0  0  0  0
   -0.2458  -22.0748    0.0000 C   0  0  0  0  0  0  0  0  0  0  0  0
   -1.3948  -21.1106    0.0000 C   0  0  0  0  0  0  0  0  0  0  0  0
   -1.1344  -19.6334    0.0000 C   0  0  0  0  0  0  0  0  0  0  0  0
    0.2752  -19.1204    0.0000 C   0  0  0  0  0  0  0  0  0  0  0  0
   -2.8358   -7.9320    0.0000 O   0  0  0  0  0  0  0  0  0  0  0  0
   -3.5858   -6.6330    0.0000 C   0  0  0  0  0  0  0  0  0  0  0  0
   -2.8358   -5.3339    0.0000 C   0  0  0  0  0  0  0  0  0  0  0  0
   -3.5858   -4.0349    0.0000 C   0  0  0  0  0  0  0  0  0  0  0  0
   -5.0858   -4.0349    0.0000 C   0  0  0  0  0  0  0  0  0  0  0  0
   -5.8358   -5.3339    0.0000 C   0  0  0  0  0  0  0  0  0  0  0  0
   -5.0858   -6.6330    0.0000 C   0  0  0  0  0  0  0  0  0  0  0  0
   -5.8358   -7.9320    0.0000 C   0  0  0  0  0  0  0  0  0  0  0  0
   -7.3358   -7.9320    0.0000 C   0  0  0  0  0  0  0  0  0  0  0  0
   -8.0858   -9.2311    0.0000 C   0  0  0  0  0  0  0  0  0  0  0  0
   -7.3358  -10.5301    0.0000 C   0  0  0  0  0  0  0  0  0  0  0  0
   -5.8358  -10.5301    0.0000 C   0  0  0  0  0  0  0  0  0  0  0  0
   -5.0858   -9.2311    0.0000 C   0  0  0  0  0  0  0  0  0  0  0  0
  1  2  2  0
  2  3  1  0
  3  4  1  0
  4  5  1  0
  5  6  1  0
  6  7  1  0
  7  8  1  0
  8  9  1  0
  9 10  1  0
 10 11  1  0
  4 12  1  0
 12 13  1  0
 13 14  1  0
 14 15  1  0
 15 16  1  0
 16 17  1  0
 17 18  1  0
 18 19  1  0
 19 20  1  0
 20 21  1  0
 21 22  1  0
 22 23  1  0
 23 24  1  0
 23 25  1  0
 19 26  1  0
 26 27  1  0
 27 28  2  0
 27 29  1  0
 29 30  1  0
 30 31  2  0
 31 32  1  0
 32 33  2  0
 33 34  1  0
 34 35  2  0
 35 36  1  0
 36 37  2  0
 37 38  1  0
 38 39  2  0
 39 40  1  0
 40 41  2  0
 15 42  1  0
 42 43  1  0
 43 44  1  0
 44 45  1  0
 45 46  1  0
 46 47  1  0
 47 48  1  0
 48 49  1  0
 49 50  1  0
 50 51  1  0
 51 52  1  0
 52 53  1  0
 53 54  1  0
 54 55  1  0
 55 56  1  0
 56 57  1  0
 57 58  1  0
 57 59  1  0
 53 60  1  0
 60 61  1  0
 61 62  2  0
 61 63  1  0
 63 64  1  0
 64 65  2  0
 65 66  1  0
 66 67  2  0
 67 68  1  0
 68 69  2  0
 69 70  1  0
 70 71  2  0
 71 72  1  0
 72 73  2  0
 73 74  1  0
 74 75  2  0
 49 76  1  0
 76 77  1  0
 77 78  1  0
 78 79  1  0
 79 80  1  0
 80 81  1  0
 81 82  1  0
 82 83  1  0
 83 84  1  0
 83 85  1  0
 79 86  1  0
 86 87  1  0
 87 88  2  0
 87 89  1  0
 89 90  1  0
 90 91  2  0
 91 92  1  0
 92 93  2  0
 93 94  1  0
 94 95  2  0
 95 96  1  0
 96 97  2  0
 97 98  1  0
 98 99  2  0
 99100  1  0
100101  2  0
 45102  1  0
102103  1  0
103104  2  0
103105  1  0
105106  1  0
106107  2  0
107108  1  0
108109  2  0
109110  1  0
110111  2  0
111112  1  0
112113  2  0
113114  1  0
114115  2  0
115116  1  0
116117  2  0
  2118  1  0
118119  1  0
119120  2  0
120121  1  0
121122  2  0
122123  1  0
123124  2  0
124125  1  0
125126  2  0
126127  1  0
127128  2  0
128129  1  0
129130  2  0
130  2  1  0
 11  9  1  0
 41 27  1  0
 75 61  1  0
101 87  1  0
117103  1  0
124119  1  0
130125  1  0
 35 30  1  0
 41 36  1  0
 69 64  1  0
 75 70  1  0
 95 90  1  0
101 96  1  0
111106  1  0
117112  1  0
M  END
>  <Candidate_ID>  (388) 
CAND_R2_388

>  <Candidate_Name>  (388) 
BDHDP-OH-glycidyl

>  <Parent_Seed_ID>  (388) 
TRAIN_107

>  <Parent_Name>  (388) 
BDHDP

>  <Transformation_Code>  (388) 
OH_glycidyl

>  <Design_Family>  (388) 
P-N-B

>  <Preparation_Type>  (388) 
Co-curing

>  <Synthesis_Level>  (388) 
C

>  <Parent_Tanimoto_r3>  (388) 
0.7471264367816092

>  <Max_Train_Tanimoto_r3>  (388) 
0.7471264367816092

>  <Risk_Flags>  (388) 
high molecular weight; high DOPO count; exploratory only; excluded from formal screening

$$$$
CAND_R2_389 | BDHDP-OH-methyl
     RDKit          2D

127141  0  0  0  0  0  0  0  0999 V2000
    9.9887  -11.4069    0.0000 C   0  0  0  0  0  0  0  0  0  0  0  0
    8.8396  -12.3711    0.0000 O   0  0  0  0  0  0  0  0  0  0  0  0
    7.4300  -11.8581    0.0000 C   0  0  0  0  0  0  0  0  0  0  0  0
    6.2810  -12.8223    0.0000 C   0  0  0  0  0  0  0  0  0  0  0  0
    4.8714  -12.3092    0.0000 N   0  0  0  0  0  0  0  0  0  0  0  0
    3.7224  -13.2734    0.0000 C   0  0  0  0  0  0  0  0  0  0  0  0
    2.3128  -12.7604    0.0000 C   0  0  0  0  0  0  0  0  0  0  0  0
    2.0524  -11.2832    0.0000 O   0  0  0  0  0  0  0  0  0  0  0  0
    0.6428  -10.7701    0.0000 B   0  0  0  0  0  0  0  0  0  0  0  0
    0.3824   -9.2929    0.0000 O   0  0  0  0  0  0  0  0  0  0  0  0
   -1.0272   -8.7799    0.0000 C   0  0  0  0  0  0  0  0  0  0  0  0
   -1.2877   -7.3027    0.0000 C   0  0  0  0  0  0  0  0  0  0  0  0
   -2.6972   -6.7897    0.0000 N   0  0  0  0  0  0  0  0  0  0  0  0
   -3.8463   -7.7538    0.0000 C   0  0  0  0  0  0  0  0  0  0  0  0
   -3.5858   -9.2311    0.0000 C   0  0  0  0  0  0  0  0  0  0  0  0
   -4.7349  -10.1952    0.0000 O   0  0  0  0  0  0  0  0  0  0  0  0
   -4.4744  -11.6724    0.0000 B   0  0  0  0  0  0  0  0  0  0  0  0
   -5.6235  -12.6366    0.0000 O   0  0  0  0  0  0  0  0  0  0  0  0
   -3.0648  -12.1855    0.0000 O   0  0  0  0  0  0  0  0  0  0  0  0
   -2.9577   -5.3124    0.0000 C   0  0  0  0  0  0  0  0  0  0  0  0
   -1.8086   -4.3483    0.0000 P   0  0  0  0  0  0  0  0  0  0  0  0
   -1.0586   -5.6473    0.0000 O   0  0  0  0  0  0  0  0  0  0  0  0
   -2.9577   -3.3841    0.0000 O   0  0  0  0  0  0  0  0  0  0  0  0
   -2.6972   -1.9069    0.0000 C   0  0  0  0  0  0  0  0  0  0  0  0
   -3.8463   -0.9427    0.0000 C   0  0  0  0  0  0  0  0  0  0  0  0
   -3.5858    0.5345    0.0000 C   0  0  0  0  0  0  0  0  0  0  0  0
   -2.1763    1.0476    0.0000 C   0  0  0  0  0  0  0  0  0  0  0  0
   -1.0272    0.0834    0.0000 C   0  0  0  0  0  0  0  0  0  0  0  0
   -1.2877   -1.3938    0.0000 C   0  0  0  0  0  0  0  0  0  0  0  0
   -0.1386   -2.3580    0.0000 C   0  0  0  0  0  0  0  0  0  0  0  0
    1.2709   -1.8450    0.0000 C   0  0  0  0  0  0  0  0  0  0  0  0
    2.4200   -2.8092    0.0000 C   0  0  0  0  0  0  0  0  0  0  0  0
    2.1595   -4.2864    0.0000 C   0  0  0  0  0  0  0  0  0  0  0  0
    0.7500   -4.7994    0.0000 C   0  0  0  0  0  0  0  0  0  0  0  0
   -0.3991   -3.8352    0.0000 C   0  0  0  0  0  0  0  0  0  0  0  0
   -0.5062  -11.7343    0.0000 O   0  0  0  0  0  0  0  0  0  0  0  0
   -0.2458  -13.2115    0.0000 C   0  0  0  0  0  0  0  0  0  0  0  0
   -1.3948  -14.1757    0.0000 C   0  0  0  0  0  0  0  0  0  0  0  0
   -1.1344  -15.6529    0.0000 N   0  0  0  0  0  0  0  0  0  0  0  0
   -2.2834  -16.6171    0.0000 C   0  0  0  0  0  0  0  0  0  0  0  0
   -3.6930  -16.1041    0.0000 C   0  0  0  0  0  0  0  0  0  0  0  0
   -4.8420  -17.0683    0.0000 O   0  0  0  0  0  0  0  0  0  0  0  0
   -6.2516  -16.5552    0.0000 B   0  0  0  0  0  0  0  0  0  0  0  0
   -7.4006  -17.5194    0.0000 O   0  0  0  0  0  0  0  0  0  0  0  0
   -7.1402  -18.9966    0.0000 C   0  0  0  0  0  0  0  0  0  0  0  0
   -8.2892  -19.9608    0.0000 C   0  0  0  0  0  0  0  0  0  0  0  0
   -8.0288  -21.4380    0.0000 N   0  0  0  0  0  0  0  0  0  0  0  0
   -9.1778  -22.4022    0.0000 C   0  0  0  0  0  0  0  0  0  0  0  0
  -10.5874  -21.8892    0.0000 C   0  0  0  0  0  0  0  0  0  0  0  0
  -11.7364  -22.8533    0.0000 O   0  0  0  0  0  0  0  0  0  0  0  0
  -13.1460  -22.3403    0.0000 B   0  0  0  0  0  0  0  0  0  0  0  0
  -14.2950  -23.3045    0.0000 O   0  0  0  0  0  0  0  0  0  0  0  0
  -13.4064  -20.8631    0.0000 O   0  0  0  0  0  0  0  0  0  0  0  0
   -6.6192  -21.9510    0.0000 C   0  0  0  0  0  0  0  0  0  0  0  0
   -6.3588  -23.4283    0.0000 P   0  0  0  0  0  0  0  0  0  0  0  0
   -7.8588  -23.4283    0.0000 O   0  0  0  0  0  0  0  0  0  0  0  0
   -4.9492  -22.9152    0.0000 O   0  0  0  0  0  0  0  0  0  0  0  0
   -3.8001  -23.8794    0.0000 C   0  0  0  0  0  0  0  0  0  0  0  0
   -2.3906  -23.3664    0.0000 C   0  0  0  0  0  0  0  0  0  0  0  0
   -1.2415  -24.3306    0.0000 C   0  0  0  0  0  0  0  0  0  0  0  0
   -1.5020  -25.8078    0.0000 C   0  0  0  0  0  0  0  0  0  0  0  0
   -2.9116  -26.3208    0.0000 C   0  0  0  0  0  0  0  0  0  0  0  0
   -4.0606  -25.3566    0.0000 C   0  0  0  0  0  0  0  0  0  0  0  0
   -5.4702  -25.8697    0.0000 C   0  0  0  0  0  0  0  0  0  0  0  0
   -5.7306  -27.3469    0.0000 C   0  0  0  0  0  0  0  0  0  0  0  0
   -7.1402  -27.8599    0.0000 C   0  0  0  0  0  0  0  0  0  0  0  0
   -8.2892  -26.8957    0.0000 C   0  0  0  0  0  0  0  0  0  0  0  0
   -8.0288  -25.4185    0.0000 C   0  0  0  0  0  0  0  0  0  0  0  0
   -6.6192  -24.9055    0.0000 C   0  0  0  0  0  0  0  0  0  0  0  0
   -6.5120  -15.0780    0.0000 O   0  0  0  0  0  0  0  0  0  0  0  0
   -7.9216  -14.5650    0.0000 C   0  0  0  0  0  0  0  0  0  0  0  0
   -8.1821  -13.0878    0.0000 C   0  0  0  0  0  0  0  0  0  0  0  0
   -9.5916  -12.5747    0.0000 N   0  0  0  0  0  0  0  0  0  0  0  0
   -9.8521  -11.0975    0.0000 C   0  0  0  0  0  0  0  0  0  0  0  0
   -8.7030  -10.1334    0.0000 C   0  0  0  0  0  0  0  0  0  0  0  0
   -8.9635   -8.6561    0.0000 O   0  0  0  0  0  0  0  0  0  0  0  0
   -7.8144   -7.6920    0.0000 B   0  0  0  0  0  0  0  0  0  0  0  0
   -8.0749   -6.2147    0.0000 O   0  0  0  0  0  0  0  0  0  0  0  0
   -6.4049   -8.2050    0.0000 O   0  0  0  0  0  0  0  0  0  0  0  0
  -10.7407  -13.5389    0.0000 C   0  0  0  0  0  0  0  0  0  0  0  0
  -12.1502  -13.0259    0.0000 P   0  0  0  0  0  0  0  0  0  0  0  0
  -11.4002  -11.7269    0.0000 O   0  0  0  0  0  0  0  0  0  0  0  0
  -12.4107  -14.5031    0.0000 O   0  0  0  0  0  0  0  0  0  0  0  0
  -13.8202  -15.0161    0.0000 C   0  0  0  0  0  0  0  0  0  0  0  0
  -14.0807  -16.4934    0.0000 C   0  0  0  0  0  0  0  0  0  0  0  0
  -15.4902  -17.0064    0.0000 C   0  0  0  0  0  0  0  0  0  0  0  0
  -16.6393  -16.0422    0.0000 C   0  0  0  0  0  0  0  0  0  0  0  0
  -16.3788  -14.5650    0.0000 C   0  0  0  0  0  0  0  0  0  0  0  0
  -14.9693  -14.0520    0.0000 C   0  0  0  0  0  0  0  0  0  0  0  0
  -14.7088  -12.5747    0.0000 C   0  0  0  0  0  0  0  0  0  0  0  0
  -15.8579  -11.6106    0.0000 C   0  0  0  0  0  0  0  0  0  0  0  0
  -15.5974  -10.1334    0.0000 C   0  0  0  0  0  0  0  0  0  0  0  0
  -14.1879   -9.6203    0.0000 C   0  0  0  0  0  0  0  0  0  0  0  0
  -13.0388  -10.5845    0.0000 C   0  0  0  0  0  0  0  0  0  0  0  0
  -13.2993  -12.0617    0.0000 C   0  0  0  0  0  0  0  0  0  0  0  0
    0.2752  -16.1660    0.0000 C   0  0  0  0  0  0  0  0  0  0  0  0
    0.5356  -17.6432    0.0000 P   0  0  0  0  0  0  0  0  0  0  0  0
   -0.9644  -17.6432    0.0000 O   0  0  0  0  0  0  0  0  0  0  0  0
    1.9452  -17.1301    0.0000 O   0  0  0  0  0  0  0  0  0  0  0  0
    3.0943  -18.0943    0.0000 C   0  0  0  0  0  0  0  0  0  0  0  0
    4.5038  -17.5813    0.0000 C   0  0  0  0  0  0  0  0  0  0  0  0
    5.6529  -18.5455    0.0000 C   0  0  0  0  0  0  0  0  0  0  0  0
    5.3924  -20.0227    0.0000 C   0  0  0  0  0  0  0  0  0  0  0  0
    3.9828  -20.5357    0.0000 C   0  0  0  0  0  0  0  0  0  0  0  0
    2.8338  -19.5715    0.0000 C   0  0  0  0  0  0  0  0  0  0  0  0
    1.4242  -20.0846    0.0000 C   0  0  0  0  0  0  0  0  0  0  0  0
    1.1638  -21.5618    0.0000 C   0  0  0  0  0  0  0  0  0  0  0  0
   -0.2458  -22.0748    0.0000 C   0  0  0  0  0  0  0  0  0  0  0  0
   -1.3948  -21.1106    0.0000 C   0  0  0  0  0  0  0  0  0  0  0  0
   -1.1344  -19.6334    0.0000 C   0  0  0  0  0  0  0  0  0  0  0  0
    0.2752  -19.1204    0.0000 C   0  0  0  0  0  0  0  0  0  0  0  0
    4.6110  -10.8320    0.0000 C   0  0  0  0  0  0  0  0  0  0  0  0
    5.7600   -9.8678    0.0000 P   0  0  0  0  0  0  0  0  0  0  0  0
    6.5100  -11.1669    0.0000 O   0  0  0  0  0  0  0  0  0  0  0  0
    4.6110   -8.9037    0.0000 O   0  0  0  0  0  0  0  0  0  0  0  0
    4.8714   -7.4264    0.0000 C   0  0  0  0  0  0  0  0  0  0  0  0
    3.7224   -6.4623    0.0000 C   0  0  0  0  0  0  0  0  0  0  0  0
    3.9828   -4.9851    0.0000 C   0  0  0  0  0  0  0  0  0  0  0  0
    5.3924   -4.4720    0.0000 C   0  0  0  0  0  0  0  0  0  0  0  0
    6.5415   -5.4362    0.0000 C   0  0  0  0  0  0  0  0  0  0  0  0
    6.2810   -6.9134    0.0000 C   0  0  0  0  0  0  0  0  0  0  0  0
    7.4300   -7.8776    0.0000 C   0  0  0  0  0  0  0  0  0  0  0  0
    8.8396   -7.3646    0.0000 C   0  0  0  0  0  0  0  0  0  0  0  0
    9.9887   -8.3287    0.0000 C   0  0  0  0  0  0  0  0  0  0  0  0
    9.7282   -9.8060    0.0000 C   0  0  0  0  0  0  0  0  0  0  0  0
    8.3186  -10.3190    0.0000 C   0  0  0  0  0  0  0  0  0  0  0  0
    7.1696   -9.3548    0.0000 C   0  0  0  0  0  0  0  0  0  0  0  0
  1  2  1  0
  2  3  1  0
  3  4  1  0
  4  5  1  0
  5  6  1  0
  6  7  1  0
  7  8  1  0
  8  9  1  0
  9 10  1  0
 10 11  1  0
 11 12  1  0
 12 13  1  0
 13 14  1  0
 14 15  1  0
 15 16  1  0
 16 17  1  0
 17 18  1  0
 17 19  1  0
 13 20  1  0
 20 21  1  0
 21 22  2  0
 21 23  1  0
 23 24  1  0
 24 25  2  0
 25 26  1  0
 26 27  2  0
 27 28  1  0
 28 29  2  0
 29 30  1  0
 30 31  2  0
 31 32  1  0
 32 33  2  0
 33 34  1  0
 34 35  2  0
  9 36  1  0
 36 37  1  0
 37 38  1  0
 38 39  1  0
 39 40  1  0
 40 41  1  0
 41 42  1  0
 42 43  1  0
 43 44  1  0
 44 45  1  0
 45 46  1  0
 46 47  1  0
 47 48  1  0
 48 49  1  0
 49 50  1  0
 50 51  1  0
 51 52  1  0
 51 53  1  0
 47 54  1  0
 54 55  1  0
 55 56  2  0
 55 57  1  0
 57 58  1  0
 58 59  2  0
 59 60  1  0
 60 61  2  0
 61 62  1  0
 62 63  2  0
 63 64  1  0
 64 65  2  0
 65 66  1  0
 66 67  2  0
 67 68  1  0
 68 69  2  0
 43 70  1  0
 70 71  1  0
 71 72  1  0
 72 73  1  0
 73 74  1  0
 74 75  1  0
 75 76  1  0
 76 77  1  0
 77 78  1  0
 77 79  1  0
 73 80  1  0
 80 81  1  0
 81 82  2  0
 81 83  1  0
 83 84  1  0
 84 85  2  0
 85 86  1  0
 86 87  2  0
 87 88  1  0
 88 89  2  0
 89 90  1  0
 90 91  2  0
 91 92  1  0
 92 93  2  0
 93 94  1  0
 94 95  2  0
 39 96  1  0
 96 97  1  0
 97 98  2  0
 97 99  1  0
 99100  1  0
100101  2  0
101102  1  0
102103  2  0
103104  1  0
104105  2  0
105106  1  0
106107  2  0
107108  1  0
108109  2  0
109110  1  0
110111  2  0
  5112  1  0
112113  1  0
113114  2  0
113115  1  0
115116  1  0
116117  2  0
117118  1  0
118119  2  0
119120  1  0
120121  2  0
121122  1  0
122123  2  0
123124  1  0
124125  2  0
125126  1  0
126127  2  0
 35 21  1  0
 69 55  1  0
 95 81  1  0
111 97  1  0
127113  1  0
 29 24  1  0
 35 30  1  0
 63 58  1  0
 69 64  1  0
 89 84  1  0
 95 90  1  0
105100  1  0
111106  1  0
121116  1  0
127122  1  0
M  END
>  <Candidate_ID>  (389) 
CAND_R2_389

>  <Candidate_Name>  (389) 
BDHDP-OH-methyl

>  <Parent_Seed_ID>  (389) 
TRAIN_107

>  <Parent_Name>  (389) 
BDHDP

>  <Transformation_Code>  (389) 
OH_methyl

>  <Design_Family>  (389) 
P-N-B

>  <Preparation_Type>  (389) 
Additive

>  <Synthesis_Level>  (389) 
C

>  <Parent_Tanimoto_r3>  (389) 
0.8333333333333334

>  <Max_Train_Tanimoto_r3>  (389) 
0.8333333333333334

>  <Risk_Flags>  (389) 
high molecular weight; high DOPO count; exploratory only; excluded from formal screening

$$$$
CAND_R2_390 | BDHDP-OH-acetyl
     RDKit          2D

129143  0  0  0  0  0  0  0  0999 V2000
    9.6210  -16.8027    0.0000 C   0  0  0  0  0  0  0  0  0  0  0  0
    8.2115  -16.2897    0.0000 C   0  0  0  0  0  0  0  0  0  0  0  0
    7.0624  -17.2539    0.0000 O   0  0  0  0  0  0  0  0  0  0  0  0
    7.9510  -14.8125    0.0000 O   0  0  0  0  0  0  0  0  0  0  0  0
    6.5415  -14.2995    0.0000 C   0  0  0  0  0  0  0  0  0  0  0  0
    6.2810  -12.8223    0.0000 C   0  0  0  0  0  0  0  0  0  0  0  0
    4.8714  -12.3092    0.0000 N   0  0  0  0  0  0  0  0  0  0  0  0
    3.7224  -13.2734    0.0000 C   0  0  0  0  0  0  0  0  0  0  0  0
    2.3128  -12.7604    0.0000 C   0  0  0  0  0  0  0  0  0  0  0  0
    2.0524  -11.2832    0.0000 O   0  0  0  0  0  0  0  0  0  0  0  0
    0.6428  -10.7701    0.0000 B   0  0  0  0  0  0  0  0  0  0  0  0
    0.3824   -9.2929    0.0000 O   0  0  0  0  0  0  0  0  0  0  0  0
   -1.0272   -8.7799    0.0000 C   0  0  0  0  0  0  0  0  0  0  0  0
   -1.2877   -7.3027    0.0000 C   0  0  0  0  0  0  0  0  0  0  0  0
   -2.6972   -6.7897    0.0000 N   0  0  0  0  0  0  0  0  0  0  0  0
   -3.8463   -7.7538    0.0000 C   0  0  0  0  0  0  0  0  0  0  0  0
   -3.5858   -9.2311    0.0000 C   0  0  0  0  0  0  0  0  0  0  0  0
   -4.7349  -10.1952    0.0000 O   0  0  0  0  0  0  0  0  0  0  0  0
   -4.4744  -11.6724    0.0000 B   0  0  0  0  0  0  0  0  0  0  0  0
   -5.6235  -12.6366    0.0000 O   0  0  0  0  0  0  0  0  0  0  0  0
   -3.0648  -12.1855    0.0000 O   0  0  0  0  0  0  0  0  0  0  0  0
   -2.9577   -5.3124    0.0000 C   0  0  0  0  0  0  0  0  0  0  0  0
   -1.8086   -4.3483    0.0000 P   0  0  0  0  0  0  0  0  0  0  0  0
   -1.0586   -5.6473    0.0000 O   0  0  0  0  0  0  0  0  0  0  0  0
   -2.9577   -3.3841    0.0000 O   0  0  0  0  0  0  0  0  0  0  0  0
   -2.6972   -1.9069    0.0000 C   0  0  0  0  0  0  0  0  0  0  0  0
   -3.8463   -0.9427    0.0000 C   0  0  0  0  0  0  0  0  0  0  0  0
   -3.5858    0.5345    0.0000 C   0  0  0  0  0  0  0  0  0  0  0  0
   -2.1763    1.0476    0.0000 C   0  0  0  0  0  0  0  0  0  0  0  0
   -1.0272    0.0834    0.0000 C   0  0  0  0  0  0  0  0  0  0  0  0
   -1.2877   -1.3938    0.0000 C   0  0  0  0  0  0  0  0  0  0  0  0
   -0.1386   -2.3580    0.0000 C   0  0  0  0  0  0  0  0  0  0  0  0
    1.2709   -1.8450    0.0000 C   0  0  0  0  0  0  0  0  0  0  0  0
    2.4200   -2.8092    0.0000 C   0  0  0  0  0  0  0  0  0  0  0  0
    2.1595   -4.2864    0.0000 C   0  0  0  0  0  0  0  0  0  0  0  0
    0.7500   -4.7994    0.0000 C   0  0  0  0  0  0  0  0  0  0  0  0
   -0.3991   -3.8352    0.0000 C   0  0  0  0  0  0  0  0  0  0  0  0
   -0.5062  -11.7343    0.0000 O   0  0  0  0  0  0  0  0  0  0  0  0
   -0.2458  -13.2115    0.0000 C   0  0  0  0  0  0  0  0  0  0  0  0
   -1.3948  -14.1757    0.0000 C   0  0  0  0  0  0  0  0  0  0  0  0
   -1.1344  -15.6529    0.0000 N   0  0  0  0  0  0  0  0  0  0  0  0
   -2.2834  -16.6171    0.0000 C   0  0  0  0  0  0  0  0  0  0  0  0
   -3.6930  -16.1041    0.0000 C   0  0  0  0  0  0  0  0  0  0  0  0
   -4.8420  -17.0683    0.0000 O   0  0  0  0  0  0  0  0  0  0  0  0
   -6.2516  -16.5552    0.0000 B   0  0  0  0  0  0  0  0  0  0  0  0
   -7.4006  -17.5194    0.0000 O   0  0  0  0  0  0  0  0  0  0  0  0
   -7.1402  -18.9966    0.0000 C   0  0  0  0  0  0  0  0  0  0  0  0
   -8.2892  -19.9608    0.0000 C   0  0  0  0  0  0  0  0  0  0  0  0
   -8.0288  -21.4380    0.0000 N   0  0  0  0  0  0  0  0  0  0  0  0
   -9.1778  -22.4022    0.0000 C   0  0  0  0  0  0  0  0  0  0  0  0
  -10.5874  -21.8892    0.0000 C   0  0  0  0  0  0  0  0  0  0  0  0
  -11.7364  -22.8533    0.0000 O   0  0  0  0  0  0  0  0  0  0  0  0
  -13.1460  -22.3403    0.0000 B   0  0  0  0  0  0  0  0  0  0  0  0
  -14.2950  -23.3045    0.0000 O   0  0  0  0  0  0  0  0  0  0  0  0
  -13.4064  -20.8631    0.0000 O   0  0  0  0  0  0  0  0  0  0  0  0
   -6.6192  -21.9510    0.0000 C   0  0  0  0  0  0  0  0  0  0  0  0
   -6.3588  -23.4283    0.0000 P   0  0  0  0  0  0  0  0  0  0  0  0
   -7.8588  -23.4283    0.0000 O   0  0  0  0  0  0  0  0  0  0  0  0
   -4.9492  -22.9152    0.0000 O   0  0  0  0  0  0  0  0  0  0  0  0
   -3.8001  -23.8794    0.0000 C   0  0  0  0  0  0  0  0  0  0  0  0
   -2.3906  -23.3664    0.0000 C   0  0  0  0  0  0  0  0  0  0  0  0
   -1.2415  -24.3306    0.0000 C   0  0  0  0  0  0  0  0  0  0  0  0
   -1.5020  -25.8078    0.0000 C   0  0  0  0  0  0  0  0  0  0  0  0
   -2.9116  -26.3208    0.0000 C   0  0  0  0  0  0  0  0  0  0  0  0
   -4.0606  -25.3566    0.0000 C   0  0  0  0  0  0  0  0  0  0  0  0
   -5.4702  -25.8697    0.0000 C   0  0  0  0  0  0  0  0  0  0  0  0
   -5.7306  -27.3469    0.0000 C   0  0  0  0  0  0  0  0  0  0  0  0
   -7.1402  -27.8599    0.0000 C   0  0  0  0  0  0  0  0  0  0  0  0
   -8.2892  -26.8957    0.0000 C   0  0  0  0  0  0  0  0  0  0  0  0
   -8.0288  -25.4185    0.0000 C   0  0  0  0  0  0  0  0  0  0  0  0
   -6.6192  -24.9055    0.0000 C   0  0  0  0  0  0  0  0  0  0  0  0
   -6.5120  -15.0780    0.0000 O   0  0  0  0  0  0  0  0  0  0  0  0
   -7.9216  -14.5650    0.0000 C   0  0  0  0  0  0  0  0  0  0  0  0
   -8.1821  -13.0878    0.0000 C   0  0  0  0  0  0  0  0  0  0  0  0
   -9.5916  -12.5747    0.0000 N   0  0  0  0  0  0  0  0  0  0  0  0
   -9.8521  -11.0975    0.0000 C   0  0  0  0  0  0  0  0  0  0  0  0
   -8.7030  -10.1334    0.0000 C   0  0  0  0  0  0  0  0  0  0  0  0
   -8.9635   -8.6561    0.0000 O   0  0  0  0  0  0  0  0  0  0  0  0
   -7.8144   -7.6920    0.0000 B   0  0  0  0  0  0  0  0  0  0  0  0
   -8.0749   -6.2147    0.0000 O   0  0  0  0  0  0  0  0  0  0  0  0
   -6.4049   -8.2050    0.0000 O   0  0  0  0  0  0  0  0  0  0  0  0
  -10.7407  -13.5389    0.0000 C   0  0  0  0  0  0  0  0  0  0  0  0
  -12.1502  -13.0259    0.0000 P   0  0  0  0  0  0  0  0  0  0  0  0
  -11.4002  -11.7269    0.0000 O   0  0  0  0  0  0  0  0  0  0  0  0
  -12.4107  -14.5031    0.0000 O   0  0  0  0  0  0  0  0  0  0  0  0
  -13.8202  -15.0161    0.0000 C   0  0  0  0  0  0  0  0  0  0  0  0
  -14.0807  -16.4934    0.0000 C   0  0  0  0  0  0  0  0  0  0  0  0
  -15.4902  -17.0064    0.0000 C   0  0  0  0  0  0  0  0  0  0  0  0
  -16.6393  -16.0422    0.0000 C   0  0  0  0  0  0  0  0  0  0  0  0
  -16.3788  -14.5650    0.0000 C   0  0  0  0  0  0  0  0  0  0  0  0
  -14.9693  -14.0520    0.0000 C   0  0  0  0  0  0  0  0  0  0  0  0
  -14.7088  -12.5747    0.0000 C   0  0  0  0  0  0  0  0  0  0  0  0
  -15.8579  -11.6106    0.0000 C   0  0  0  0  0  0  0  0  0  0  0  0
  -15.5974  -10.1334    0.0000 C   0  0  0  0  0  0  0  0  0  0  0  0
  -14.1879   -9.6203    0.0000 C   0  0  0  0  0  0  0  0  0  0  0  0
  -13.0388  -10.5845    0.0000 C   0  0  0  0  0  0  0  0  0  0  0  0
  -13.2993  -12.0617    0.0000 C   0  0  0  0  0  0  0  0  0  0  0  0
    0.2752  -16.1660    0.0000 C   0  0  0  0  0  0  0  0  0  0  0  0
    0.5356  -17.6432    0.0000 P   0  0  0  0  0  0  0  0  0  0  0  0
   -0.9644  -17.6432    0.0000 O   0  0  0  0  0  0  0  0  0  0  0  0
    1.9452  -17.1301    0.0000 O   0  0  0  0  0  0  0  0  0  0  0  0
    3.0943  -18.0943    0.0000 C   0  0  0  0  0  0  0  0  0  0  0  0
    4.5038  -17.5813    0.0000 C   0  0  0  0  0  0  0  0  0  0  0  0
    5.6529  -18.5455    0.0000 C   0  0  0  0  0  0  0  0  0  0  0  0
    5.3924  -20.0227    0.0000 C   0  0  0  0  0  0  0  0  0  0  0  0
    3.9828  -20.5357    0.0000 C   0  0  0  0  0  0  0  0  0  0  0  0
    2.8338  -19.5715    0.0000 C   0  0  0  0  0  0  0  0  0  0  0  0
    1.4242  -20.0846    0.0000 C   0  0  0  0  0  0  0  0  0  0  0  0
    1.1638  -21.5618    0.0000 C   0  0  0  0  0  0  0  0  0  0  0  0
   -0.2458  -22.0748    0.0000 C   0  0  0  0  0  0  0  0  0  0  0  0
   -1.3948  -21.1106    0.0000 C   0  0  0  0  0  0  0  0  0  0  0  0
   -1.1344  -19.6334    0.0000 C   0  0  0  0  0  0  0  0  0  0  0  0
    0.2752  -19.1204    0.0000 C   0  0  0  0  0  0  0  0  0  0  0  0
    4.6110  -10.8320    0.0000 C   0  0  0  0  0  0  0  0  0  0  0  0
    5.7600   -9.8678    0.0000 P   0  0  0  0  0  0  0  0  0  0  0  0
    6.5100  -11.1669    0.0000 O   0  0  0  0  0  0  0  0  0  0  0  0
    4.6110   -8.9037    0.0000 O   0  0  0  0  0  0  0  0  0  0  0  0
    4.8714   -7.4264    0.0000 C   0  0  0  0  0  0  0  0  0  0  0  0
    3.7224   -6.4623    0.0000 C   0  0  0  0  0  0  0  0  0  0  0  0
    3.9828   -4.9851    0.0000 C   0  0  0  0  0  0  0  0  0  0  0  0
    5.3924   -4.4720    0.0000 C   0  0  0  0  0  0  0  0  0  0  0  0
    6.5415   -5.4362    0.0000 C   0  0  0  0  0  0  0  0  0  0  0  0
    6.2810   -6.9134    0.0000 C   0  0  0  0  0  0  0  0  0  0  0  0
    7.4300   -7.8776    0.0000 C   0  0  0  0  0  0  0  0  0  0  0  0
    8.8396   -7.3646    0.0000 C   0  0  0  0  0  0  0  0  0  0  0  0
    9.9887   -8.3287    0.0000 C   0  0  0  0  0  0  0  0  0  0  0  0
    9.7282   -9.8060    0.0000 C   0  0  0  0  0  0  0  0  0  0  0  0
    8.3186  -10.3190    0.0000 C   0  0  0  0  0  0  0  0  0  0  0  0
    7.1696   -9.3548    0.0000 C   0  0  0  0  0  0  0  0  0  0  0  0
  1  2  1  0
  2  3  2  0
  2  4  1  0
  4  5  1  0
  5  6  1  0
  6  7  1  0
  7  8  1  0
  8  9  1  0
  9 10  1  0
 10 11  1  0
 11 12  1  0
 12 13  1  0
 13 14  1  0
 14 15  1  0
 15 16  1  0
 16 17  1  0
 17 18  1  0
 18 19  1  0
 19 20  1  0
 19 21  1  0
 15 22  1  0
 22 23  1  0
 23 24  2  0
 23 25  1  0
 25 26  1  0
 26 27  2  0
 27 28  1  0
 28 29  2  0
 29 30  1  0
 30 31  2  0
 31 32  1  0
 32 33  2  0
 33 34  1  0
 34 35  2  0
 35 36  1  0
 36 37  2  0
 11 38  1  0
 38 39  1  0
 39 40  1  0
 40 41  1  0
 41 42  1  0
 42 43  1  0
 43 44  1  0
 44 45  1  0
 45 46  1  0
 46 47  1  0
 47 48  1  0
 48 49  1  0
 49 50  1  0
 50 51  1  0
 51 52  1  0
 52 53  1  0
 53 54  1  0
 53 55  1  0
 49 56  1  0
 56 57  1  0
 57 58  2  0
 57 59  1  0
 59 60  1  0
 60 61  2  0
 61 62  1  0
 62 63  2  0
 63 64  1  0
 64 65  2  0
 65 66  1  0
 66 67  2  0
 67 68  1  0
 68 69  2  0
 69 70  1  0
 70 71  2  0
 45 72  1  0
 72 73  1  0
 73 74  1  0
 74 75  1  0
 75 76  1  0
 76 77  1  0
 77 78  1  0
 78 79  1  0
 79 80  1  0
 79 81  1  0
 75 82  1  0
 82 83  1  0
 83 84  2  0
 83 85  1  0
 85 86  1  0
 86 87  2  0
 87 88  1  0
 88 89  2  0
 89 90  1  0
 90 91  2  0
 91 92  1  0
 92 93  2  0
 93 94  1  0
 94 95  2  0
 95 96  1  0
 96 97  2  0
 41 98  1  0
 98 99  1  0
 99100  2  0
 99101  1  0
101102  1  0
102103  2  0
103104  1  0
104105  2  0
105106  1  0
106107  2  0
107108  1  0
108109  2  0
109110  1  0
110111  2  0
111112  1  0
112113  2  0
  7114  1  0
114115  1  0
115116  2  0
115117  1  0
117118  1  0
118119  2  0
119120  1  0
120121  2  0
121122  1  0
122123  2  0
123124  1  0
124125  2  0
125126  1  0
126127  2  0
127128  1  0
128129  2  0
 37 23  1  0
 71 57  1  0
 97 83  1  0
113 99  1  0
129115  1  0
 31 26  1  0
 37 32  1  0
 65 60  1  0
 71 66  1  0
 91 86  1  0
 97 92  1  0
107102  1  0
113108  1  0
123118  1  0
129124  1  0
M  END
>  <Candidate_ID>  (390) 
CAND_R2_390

>  <Candidate_Name>  (390) 
BDHDP-OH-acetyl

>  <Parent_Seed_ID>  (390) 
TRAIN_107

>  <Parent_Name>  (390) 
BDHDP

>  <Transformation_Code>  (390) 
OH_acetyl

>  <Design_Family>  (390) 
P-N-B

>  <Preparation_Type>  (390) 
Additive

>  <Synthesis_Level>  (390) 
C

>  <Parent_Tanimoto_r3>  (390) 
0.8024691358024691

>  <Max_Train_Tanimoto_r3>  (390) 
0.8024691358024691

>  <Risk_Flags>  (390) 
high molecular weight; high DOPO count; exploratory only; excluded from formal screening

$$$$
CAND_R2_391 | BDHDP-OH-allyl
     RDKit          2D

129143  0  0  0  0  0  0  0  0999 V2000
   12.5473  -10.9558    0.0000 C   0  0  0  0  0  0  0  0  0  0  0  0
   11.3982  -11.9200    0.0000 C   0  0  0  0  0  0  0  0  0  0  0  0
    9.9887  -11.4069    0.0000 C   0  0  0  0  0  0  0  0  0  0  0  0
    8.8396  -12.3711    0.0000 O   0  0  0  0  0  0  0  0  0  0  0  0
    7.4300  -11.8581    0.0000 C   0  0  0  0  0  0  0  0  0  0  0  0
    6.2810  -12.8223    0.0000 C   0  0  0  0  0  0  0  0  0  0  0  0
    4.8714  -12.3092    0.0000 N   0  0  0  0  0  0  0  0  0  0  0  0
    3.7224  -13.2734    0.0000 C   0  0  0  0  0  0  0  0  0  0  0  0
    2.3128  -12.7604    0.0000 C   0  0  0  0  0  0  0  0  0  0  0  0
    2.0524  -11.2832    0.0000 O   0  0  0  0  0  0  0  0  0  0  0  0
    0.6428  -10.7701    0.0000 B   0  0  0  0  0  0  0  0  0  0  0  0
    0.3824   -9.2929    0.0000 O   0  0  0  0  0  0  0  0  0  0  0  0
   -1.0272   -8.7799    0.0000 C   0  0  0  0  0  0  0  0  0  0  0  0
   -1.2877   -7.3027    0.0000 C   0  0  0  0  0  0  0  0  0  0  0  0
   -2.6972   -6.7897    0.0000 N   0  0  0  0  0  0  0  0  0  0  0  0
   -3.8463   -7.7538    0.0000 C   0  0  0  0  0  0  0  0  0  0  0  0
   -3.5858   -9.2311    0.0000 C   0  0  0  0  0  0  0  0  0  0  0  0
   -4.7349  -10.1952    0.0000 O   0  0  0  0  0  0  0  0  0  0  0  0
   -4.4744  -11.6724    0.0000 B   0  0  0  0  0  0  0  0  0  0  0  0
   -5.6235  -12.6366    0.0000 O   0  0  0  0  0  0  0  0  0  0  0  0
   -3.0648  -12.1855    0.0000 O   0  0  0  0  0  0  0  0  0  0  0  0
   -2.9577   -5.3124    0.0000 C   0  0  0  0  0  0  0  0  0  0  0  0
   -1.8086   -4.3483    0.0000 P   0  0  0  0  0  0  0  0  0  0  0  0
   -1.0586   -5.6473    0.0000 O   0  0  0  0  0  0  0  0  0  0  0  0
   -2.9577   -3.3841    0.0000 O   0  0  0  0  0  0  0  0  0  0  0  0
   -2.6972   -1.9069    0.0000 C   0  0  0  0  0  0  0  0  0  0  0  0
   -3.8463   -0.9427    0.0000 C   0  0  0  0  0  0  0  0  0  0  0  0
   -3.5858    0.5345    0.0000 C   0  0  0  0  0  0  0  0  0  0  0  0
   -2.1763    1.0476    0.0000 C   0  0  0  0  0  0  0  0  0  0  0  0
   -1.0272    0.0834    0.0000 C   0  0  0  0  0  0  0  0  0  0  0  0
   -1.2877   -1.3938    0.0000 C   0  0  0  0  0  0  0  0  0  0  0  0
   -0.1386   -2.3580    0.0000 C   0  0  0  0  0  0  0  0  0  0  0  0
    1.2709   -1.8450    0.0000 C   0  0  0  0  0  0  0  0  0  0  0  0
    2.4200   -2.8092    0.0000 C   0  0  0  0  0  0  0  0  0  0  0  0
    2.1595   -4.2864    0.0000 C   0  0  0  0  0  0  0  0  0  0  0  0
    0.7500   -4.7994    0.0000 C   0  0  0  0  0  0  0  0  0  0  0  0
   -0.3991   -3.8352    0.0000 C   0  0  0  0  0  0  0  0  0  0  0  0
   -0.5062  -11.7343    0.0000 O   0  0  0  0  0  0  0  0  0  0  0  0
   -0.2458  -13.2115    0.0000 C   0  0  0  0  0  0  0  0  0  0  0  0
   -1.3948  -14.1757    0.0000 C   0  0  0  0  0  0  0  0  0  0  0  0
   -1.1344  -15.6529    0.0000 N   0  0  0  0  0  0  0  0  0  0  0  0
   -2.2834  -16.6171    0.0000 C   0  0  0  0  0  0  0  0  0  0  0  0
   -3.6930  -16.1041    0.0000 C   0  0  0  0  0  0  0  0  0  0  0  0
   -4.8420  -17.0683    0.0000 O   0  0  0  0  0  0  0  0  0  0  0  0
   -6.2516  -16.5552    0.0000 B   0  0  0  0  0  0  0  0  0  0  0  0
   -7.4006  -17.5194    0.0000 O   0  0  0  0  0  0  0  0  0  0  0  0
   -7.1402  -18.9966    0.0000 C   0  0  0  0  0  0  0  0  0  0  0  0
   -8.2892  -19.9608    0.0000 C   0  0  0  0  0  0  0  0  0  0  0  0
   -8.0288  -21.4380    0.0000 N   0  0  0  0  0  0  0  0  0  0  0  0
   -9.1778  -22.4022    0.0000 C   0  0  0  0  0  0  0  0  0  0  0  0
  -10.5874  -21.8892    0.0000 C   0  0  0  0  0  0  0  0  0  0  0  0
  -11.7364  -22.8533    0.0000 O   0  0  0  0  0  0  0  0  0  0  0  0
  -13.1460  -22.3403    0.0000 B   0  0  0  0  0  0  0  0  0  0  0  0
  -14.2950  -23.3045    0.0000 O   0  0  0  0  0  0  0  0  0  0  0  0
  -13.4064  -20.8631    0.0000 O   0  0  0  0  0  0  0  0  0  0  0  0
   -6.6192  -21.9510    0.0000 C   0  0  0  0  0  0  0  0  0  0  0  0
   -6.3588  -23.4283    0.0000 P   0  0  0  0  0  0  0  0  0  0  0  0
   -7.8588  -23.4283    0.0000 O   0  0  0  0  0  0  0  0  0  0  0  0
   -4.9492  -22.9152    0.0000 O   0  0  0  0  0  0  0  0  0  0  0  0
   -3.8001  -23.8794    0.0000 C   0  0  0  0  0  0  0  0  0  0  0  0
   -2.3906  -23.3664    0.0000 C   0  0  0  0  0  0  0  0  0  0  0  0
   -1.2415  -24.3306    0.0000 C   0  0  0  0  0  0  0  0  0  0  0  0
   -1.5020  -25.8078    0.0000 C   0  0  0  0  0  0  0  0  0  0  0  0
   -2.9116  -26.3208    0.0000 C   0  0  0  0  0  0  0  0  0  0  0  0
   -4.0606  -25.3566    0.0000 C   0  0  0  0  0  0  0  0  0  0  0  0
   -5.4702  -25.8697    0.0000 C   0  0  0  0  0  0  0  0  0  0  0  0
   -5.7306  -27.3469    0.0000 C   0  0  0  0  0  0  0  0  0  0  0  0
   -7.1402  -27.8599    0.0000 C   0  0  0  0  0  0  0  0  0  0  0  0
   -8.2892  -26.8957    0.0000 C   0  0  0  0  0  0  0  0  0  0  0  0
   -8.0288  -25.4185    0.0000 C   0  0  0  0  0  0  0  0  0  0  0  0
   -6.6192  -24.9055    0.0000 C   0  0  0  0  0  0  0  0  0  0  0  0
   -6.5120  -15.0780    0.0000 O   0  0  0  0  0  0  0  0  0  0  0  0
   -7.9216  -14.5650    0.0000 C   0  0  0  0  0  0  0  0  0  0  0  0
   -8.1821  -13.0878    0.0000 C   0  0  0  0  0  0  0  0  0  0  0  0
   -9.5916  -12.5747    0.0000 N   0  0  0  0  0  0  0  0  0  0  0  0
   -9.8521  -11.0975    0.0000 C   0  0  0  0  0  0  0  0  0  0  0  0
   -8.7030  -10.1334    0.0000 C   0  0  0  0  0  0  0  0  0  0  0  0
   -8.9635   -8.6561    0.0000 O   0  0  0  0  0  0  0  0  0  0  0  0
   -7.8144   -7.6920    0.0000 B   0  0  0  0  0  0  0  0  0  0  0  0
   -8.0749   -6.2147    0.0000 O   0  0  0  0  0  0  0  0  0  0  0  0
   -6.4049   -8.2050    0.0000 O   0  0  0  0  0  0  0  0  0  0  0  0
  -10.7407  -13.5389    0.0000 C   0  0  0  0  0  0  0  0  0  0  0  0
  -12.1502  -13.0259    0.0000 P   0  0  0  0  0  0  0  0  0  0  0  0
  -11.4002  -11.7269    0.0000 O   0  0  0  0  0  0  0  0  0  0  0  0
  -12.4107  -14.5031    0.0000 O   0  0  0  0  0  0  0  0  0  0  0  0
  -13.8202  -15.0161    0.0000 C   0  0  0  0  0  0  0  0  0  0  0  0
  -14.0807  -16.4934    0.0000 C   0  0  0  0  0  0  0  0  0  0  0  0
  -15.4902  -17.0064    0.0000 C   0  0  0  0  0  0  0  0  0  0  0  0
  -16.6393  -16.0422    0.0000 C   0  0  0  0  0  0  0  0  0  0  0  0
  -16.3788  -14.5650    0.0000 C   0  0  0  0  0  0  0  0  0  0  0  0
  -14.9693  -14.0520    0.0000 C   0  0  0  0  0  0  0  0  0  0  0  0
  -14.7088  -12.5747    0.0000 C   0  0  0  0  0  0  0  0  0  0  0  0
  -15.8579  -11.6106    0.0000 C   0  0  0  0  0  0  0  0  0  0  0  0
  -15.5974  -10.1334    0.0000 C   0  0  0  0  0  0  0  0  0  0  0  0
  -14.1879   -9.6203    0.0000 C   0  0  0  0  0  0  0  0  0  0  0  0
  -13.0388  -10.5845    0.0000 C   0  0  0  0  0  0  0  0  0  0  0  0
  -13.2993  -12.0617    0.0000 C   0  0  0  0  0  0  0  0  0  0  0  0
    0.2752  -16.1660    0.0000 C   0  0  0  0  0  0  0  0  0  0  0  0
    0.5356  -17.6432    0.0000 P   0  0  0  0  0  0  0  0  0  0  0  0
   -0.9644  -17.6432    0.0000 O   0  0  0  0  0  0  0  0  0  0  0  0
    1.9452  -17.1301    0.0000 O   0  0  0  0  0  0  0  0  0  0  0  0
    3.0943  -18.0943    0.0000 C   0  0  0  0  0  0  0  0  0  0  0  0
    4.5038  -17.5813    0.0000 C   0  0  0  0  0  0  0  0  0  0  0  0
    5.6529  -18.5455    0.0000 C   0  0  0  0  0  0  0  0  0  0  0  0
    5.3924  -20.0227    0.0000 C   0  0  0  0  0  0  0  0  0  0  0  0
    3.9828  -20.5357    0.0000 C   0  0  0  0  0  0  0  0  0  0  0  0
    2.8338  -19.5715    0.0000 C   0  0  0  0  0  0  0  0  0  0  0  0
    1.4242  -20.0846    0.0000 C   0  0  0  0  0  0  0  0  0  0  0  0
    1.1638  -21.5618    0.0000 C   0  0  0  0  0  0  0  0  0  0  0  0
   -0.2458  -22.0748    0.0000 C   0  0  0  0  0  0  0  0  0  0  0  0
   -1.3948  -21.1106    0.0000 C   0  0  0  0  0  0  0  0  0  0  0  0
   -1.1344  -19.6334    0.0000 C   0  0  0  0  0  0  0  0  0  0  0  0
    0.2752  -19.1204    0.0000 C   0  0  0  0  0  0  0  0  0  0  0  0
    4.6110  -10.8320    0.0000 C   0  0  0  0  0  0  0  0  0  0  0  0
    5.7600   -9.8678    0.0000 P   0  0  0  0  0  0  0  0  0  0  0  0
    6.5100  -11.1669    0.0000 O   0  0  0  0  0  0  0  0  0  0  0  0
    4.6110   -8.9037    0.0000 O   0  0  0  0  0  0  0  0  0  0  0  0
    4.8714   -7.4264    0.0000 C   0  0  0  0  0  0  0  0  0  0  0  0
    3.7224   -6.4623    0.0000 C   0  0  0  0  0  0  0  0  0  0  0  0
    3.9828   -4.9851    0.0000 C   0  0  0  0  0  0  0  0  0  0  0  0
    5.3924   -4.4720    0.0000 C   0  0  0  0  0  0  0  0  0  0  0  0
    6.5415   -5.4362    0.0000 C   0  0  0  0  0  0  0  0  0  0  0  0
    6.2810   -6.9134    0.0000 C   0  0  0  0  0  0  0  0  0  0  0  0
    7.4300   -7.8776    0.0000 C   0  0  0  0  0  0  0  0  0  0  0  0
    8.8396   -7.3646    0.0000 C   0  0  0  0  0  0  0  0  0  0  0  0
    9.9887   -8.3287    0.0000 C   0  0  0  0  0  0  0  0  0  0  0  0
    9.7282   -9.8060    0.0000 C   0  0  0  0  0  0  0  0  0  0  0  0
    8.3186  -10.3190    0.0000 C   0  0  0  0  0  0  0  0  0  0  0  0
    7.1696   -9.3548    0.0000 C   0  0  0  0  0  0  0  0  0  0  0  0
  1  2  2  0
  2  3  1  0
  3  4  1  0
  4  5  1  0
  5  6  1  0
  6  7  1  0
  7  8  1  0
  8  9  1  0
  9 10  1  0
 10 11  1  0
 11 12  1  0
 12 13  1  0
 13 14  1  0
 14 15  1  0
 15 16  1  0
 16 17  1  0
 17 18  1  0
 18 19  1  0
 19 20  1  0
 19 21  1  0
 15 22  1  0
 22 23  1  0
 23 24  2  0
 23 25  1  0
 25 26  1  0
 26 27  2  0
 27 28  1  0
 28 29  2  0
 29 30  1  0
 30 31  2  0
 31 32  1  0
 32 33  2  0
 33 34  1  0
 34 35  2  0
 35 36  1  0
 36 37  2  0
 11 38  1  0
 38 39  1  0
 39 40  1  0
 40 41  1  0
 41 42  1  0
 42 43  1  0
 43 44  1  0
 44 45  1  0
 45 46  1  0
 46 47  1  0
 47 48  1  0
 48 49  1  0
 49 50  1  0
 50 51  1  0
 51 52  1  0
 52 53  1  0
 53 54  1  0
 53 55  1  0
 49 56  1  0
 56 57  1  0
 57 58  2  0
 57 59  1  0
 59 60  1  0
 60 61  2  0
 61 62  1  0
 62 63  2  0
 63 64  1  0
 64 65  2  0
 65 66  1  0
 66 67  2  0
 67 68  1  0
 68 69  2  0
 69 70  1  0
 70 71  2  0
 45 72  1  0
 72 73  1  0
 73 74  1  0
 74 75  1  0
 75 76  1  0
 76 77  1  0
 77 78  1  0
 78 79  1  0
 79 80  1  0
 79 81  1  0
 75 82  1  0
 82 83  1  0
 83 84  2  0
 83 85  1  0
 85 86  1  0
 86 87  2  0
 87 88  1  0
 88 89  2  0
 89 90  1  0
 90 91  2  0
 91 92  1  0
 92 93  2  0
 93 94  1  0
 94 95  2  0
 95 96  1  0
 96 97  2  0
 41 98  1  0
 98 99  1  0
 99100  2  0
 99101  1  0
101102  1  0
102103  2  0
103104  1  0
104105  2  0
105106  1  0
106107  2  0
107108  1  0
108109  2  0
109110  1  0
110111  2  0
111112  1  0
112113  2  0
  7114  1  0
114115  1  0
115116  2  0
115117  1  0
117118  1  0
118119  2  0
119120  1  0
120121  2  0
121122  1  0
122123  2  0
123124  1  0
124125  2  0
125126  1  0
126127  2  0
127128  1  0
128129  2  0
 37 23  1  0
 71 57  1  0
 97 83  1  0
113 99  1  0
129115  1  0
 31 26  1  0
 37 32  1  0
 65 60  1  0
 71 66  1  0
 91 86  1  0
 97 92  1  0
107102  1  0
113108  1  0
123118  1  0
129124  1  0
M  END
>  <Candidate_ID>  (391) 
CAND_R2_391

>  <Candidate_Name>  (391) 
BDHDP-OH-allyl

>  <Parent_Seed_ID>  (391) 
TRAIN_107

>  <Parent_Name>  (391) 
BDHDP

>  <Transformation_Code>  (391) 
OH_allyl

>  <Design_Family>  (391) 
P-N-B

>  <Preparation_Type>  (391) 
Additive

>  <Synthesis_Level>  (391) 
C

>  <Parent_Tanimoto_r3>  (391) 
0.7738095238095238

>  <Max_Train_Tanimoto_r3>  (391) 
0.7738095238095238

>  <Risk_Flags>  (391) 
high molecular weight; high DOPO count; exploratory only; excluded from formal screening

$$$$
CAND_R2_392 | BDHDP-boronic-ethylene
     RDKit          2D

128143  0  0  0  0  0  0  0  0999 V2000
    4.8400   -9.1766    0.0000 O   0  0  0  0  0  0  0  0  0  0  0  0
    4.0900   -7.8776    0.0000 P   0  0  0  0  0  0  0  0  0  0  0  0
    2.9410   -8.8418    0.0000 C   0  0  0  0  0  0  0  0  0  0  0  0
    1.5314   -8.3287    0.0000 N   0  0  0  0  0  0  0  0  0  0  0  0
    1.2709   -6.8515    0.0000 C   0  0  0  0  0  0  0  0  0  0  0  0
    2.4200   -5.8874    0.0000 C   0  0  0  0  0  0  0  0  0  0  0  0
    1.8098   -4.5171    0.0000 O   0  0  0  0  0  0  0  0  0  0  0  0
    0.3824   -9.2929    0.0000 C   0  0  0  0  0  0  0  0  0  0  0  0
    0.6428  -10.7701    0.0000 C   0  0  0  0  0  0  0  0  0  0  0  0
   -0.5062  -11.7343    0.0000 O   0  0  0  0  0  0  0  0  0  0  0  0
   -0.2458  -13.2115    0.0000 B   0  0  0  0  0  0  0  0  0  0  0  0
   -1.3948  -14.1757    0.0000 O   0  0  0  0  0  0  0  0  0  0  0  0
   -2.8044  -13.6627    0.0000 C   0  0  0  0  0  0  0  0  0  0  0  0
   -3.9534  -14.6269    0.0000 C   0  0  0  0  0  0  0  0  0  0  0  0
   -5.3630  -14.1138    0.0000 N   0  0  0  0  0  0  0  0  0  0  0  0
   -5.6235  -12.6366    0.0000 C   0  0  0  0  0  0  0  0  0  0  0  0
   -4.4744  -11.6724    0.0000 C   0  0  0  0  0  0  0  0  0  0  0  0
   -4.7349  -10.1952    0.0000 O   0  0  0  0  0  0  0  0  0  0  0  0
   -3.5858   -9.2311    0.0000 B   0  0  0  0  0  0  0  0  0  0  0  0
   -3.8463   -7.7538    0.0000 O   0  0  0  0  0  0  0  0  0  0  0  0
   -2.1763   -9.7441    0.0000 O   0  0  0  0  0  0  0  0  0  0  0  0
   -6.5120  -15.0780    0.0000 C   0  0  0  0  0  0  0  0  0  0  0  0
   -6.2516  -16.5552    0.0000 P   0  0  0  0  0  0  0  0  0  0  0  0
   -4.8420  -16.0422    0.0000 O   0  0  0  0  0  0  0  0  0  0  0  0
   -7.7516  -16.5552    0.0000 O   0  0  0  0  0  0  0  0  0  0  0  0
   -8.5016  -17.8543    0.0000 C   0  0  0  0  0  0  0  0  0  0  0  0
  -10.0016  -17.8543    0.0000 C   0  0  0  0  0  0  0  0  0  0  0  0
  -10.7516  -19.1533    0.0000 C   0  0  0  0  0  0  0  0  0  0  0  0
  -10.0016  -20.4523    0.0000 C   0  0  0  0  0  0  0  0  0  0  0  0
   -8.5016  -20.4523    0.0000 C   0  0  0  0  0  0  0  0  0  0  0  0
   -7.7516  -19.1533    0.0000 C   0  0  0  0  0  0  0  0  0  0  0  0
   -6.2516  -19.1533    0.0000 C   0  0  0  0  0  0  0  0  0  0  0  0
   -5.5016  -20.4523    0.0000 C   0  0  0  0  0  0  0  0  0  0  0  0
   -4.0016  -20.4523    0.0000 C   0  0  0  0  0  0  0  0  0  0  0  0
   -3.2516  -19.1533    0.0000 C   0  0  0  0  0  0  0  0  0  0  0  0
   -4.0016  -17.8543    0.0000 C   0  0  0  0  0  0  0  0  0  0  0  0
   -5.5016  -17.8543    0.0000 C   0  0  0  0  0  0  0  0  0  0  0  0
    1.1638  -13.7246    0.0000 O   0  0  0  0  0  0  0  0  0  0  0  0
    2.3128  -12.7604    0.0000 C   0  0  0  0  0  0  0  0  0  0  0  0
    3.7224  -13.2734    0.0000 C   0  0  0  0  0  0  0  0  0  0  0  0
    3.9828  -14.7506    0.0000 N   0  0  0  0  0  0  0  0  0  0  0  0
    5.3924  -15.2637    0.0000 C   0  0  0  0  0  0  0  0  0  0  0  0
    5.6529  -16.7409    0.0000 C   0  0  0  0  0  0  0  0  0  0  0  0
    7.0624  -17.2539    0.0000 O   0  0  0  0  0  0  0  0  0  0  0  0
    7.3229  -18.7311    0.0000 B   0  0  0  0  0  0  0  0  0  0  0  0
    8.7324  -19.2441    0.0000 O   0  0  0  0  0  0  0  0  0  0  0  0
    9.8815  -18.2800    0.0000 C   0  0  0  0  0  0  0  0  0  0  0  0
   11.2910  -18.7930    0.0000 C   0  0  0  0  0  0  0  0  0  0  0  0
   12.4401  -17.8288    0.0000 N   0  0  0  0  0  0  0  0  0  0  0  0
   13.8496  -18.3418    0.0000 C   0  0  0  0  0  0  0  0  0  0  0  0
   14.1101  -19.8190    0.0000 C   0  0  0  0  0  0  0  0  0  0  0  0
   15.5196  -20.3321    0.0000 O   0  0  0  0  0  0  0  0  0  0  0  0
   15.7801  -21.8093    0.0000 B   0  0  0  0  0  0  0  0  0  0  0  0
   17.1896  -22.3223    0.0000 O   0  0  0  0  0  0  0  0  0  0  0  0
   14.6310  -22.7735    0.0000 O   0  0  0  0  0  0  0  0  0  0  0  0
   12.1796  -16.3516    0.0000 C   0  0  0  0  0  0  0  0  0  0  0  0
   13.3287  -15.3874    0.0000 P   0  0  0  0  0  0  0  0  0  0  0  0
   14.0787  -16.6865    0.0000 O   0  0  0  0  0  0  0  0  0  0  0  0
   12.1796  -14.4232    0.0000 O   0  0  0  0  0  0  0  0  0  0  0  0
   12.4401  -12.9460    0.0000 C   0  0  0  0  0  0  0  0  0  0  0  0
   11.2910  -11.9818    0.0000 C   0  0  0  0  0  0  0  0  0  0  0  0
   11.5515  -10.5046    0.0000 C   0  0  0  0  0  0  0  0  0  0  0  0
   12.9610   -9.9916    0.0000 C   0  0  0  0  0  0  0  0  0  0  0  0
   14.1101  -10.9558    0.0000 C   0  0  0  0  0  0  0  0  0  0  0  0
   13.8496  -12.4330    0.0000 C   0  0  0  0  0  0  0  0  0  0  0  0
   14.9987  -13.3972    0.0000 C   0  0  0  0  0  0  0  0  0  0  0  0
   16.4082  -12.8841    0.0000 C   0  0  0  0  0  0  0  0  0  0  0  0
   17.5573  -13.8483    0.0000 C   0  0  0  0  0  0  0  0  0  0  0  0
   17.2968  -15.3255    0.0000 C   0  0  0  0  0  0  0  0  0  0  0  0
   15.8873  -15.8386    0.0000 C   0  0  0  0  0  0  0  0  0  0  0  0
   14.7382  -14.8744    0.0000 C   0  0  0  0  0  0  0  0  0  0  0  0
    6.1738  -19.6953    0.0000 O   0  0  0  0  0  0  0  0  0  0  0  0
    6.4343  -21.1725    0.0000 C   0  0  0  0  0  0  0  0  0  0  0  0
    5.2852  -22.1367    0.0000 C   0  0  0  0  0  0  0  0  0  0  0  0
    5.5457  -23.6139    0.0000 N   0  0  0  0  0  0  0  0  0  0  0  0
    4.3966  -24.5781    0.0000 C   0  0  0  0  0  0  0  0  0  0  0  0
    2.9871  -24.0650    0.0000 C   0  0  0  0  0  0  0  0  0  0  0  0
    1.8380  -25.0292    0.0000 O   0  0  0  0  0  0  0  0  0  0  0  0
    0.4285  -24.5162    0.0000 B   0  0  0  0  0  0  0  0  0  0  0  0
    0.0150  -23.0743    0.0000 O   0  0  0  0  0  0  0  0  0  0  0  0
   -1.4841  -23.0220    0.0000 C   0  0  0  0  0  0  0  0  0  0  0  0
   -1.9971  -24.4315    0.0000 C   0  0  0  0  0  0  0  0  0  0  0  0
   -0.8151  -25.3550    0.0000 O   0  0  0  0  0  0  0  0  0  0  0  0
    6.9552  -24.1269    0.0000 C   0  0  0  0  0  0  0  0  0  0  0  0
    7.2157  -25.6041    0.0000 P   0  0  0  0  0  0  0  0  0  0  0  0
    5.7157  -25.6041    0.0000 O   0  0  0  0  0  0  0  0  0  0  0  0
    8.6252  -25.0911    0.0000 O   0  0  0  0  0  0  0  0  0  0  0  0
    9.7743  -26.0553    0.0000 C   0  0  0  0  0  0  0  0  0  0  0  0
   11.1838  -25.5423    0.0000 C   0  0  0  0  0  0  0  0  0  0  0  0
   12.3329  -26.5064    0.0000 C   0  0  0  0  0  0  0  0  0  0  0  0
   12.0724  -27.9837    0.0000 C   0  0  0  0  0  0  0  0  0  0  0  0
   10.6629  -28.4967    0.0000 C   0  0  0  0  0  0  0  0  0  0  0  0
    9.5138  -27.5325    0.0000 C   0  0  0  0  0  0  0  0  0  0  0  0
    8.1043  -28.0455    0.0000 C   0  0  0  0  0  0  0  0  0  0  0  0
    7.8438  -29.5227    0.0000 C   0  0  0  0  0  0  0  0  0  0  0  0
    6.4343  -30.0358    0.0000 C   0  0  0  0  0  0  0  0  0  0  0  0
    5.2852  -29.0716    0.0000 C   0  0  0  0  0  0  0  0  0  0  0  0
    5.5457  -27.5944    0.0000 C   0  0  0  0  0  0  0  0  0  0  0  0
    6.9552  -27.0813    0.0000 C   0  0  0  0  0  0  0  0  0  0  0  0
    2.8338  -15.7148    0.0000 C   0  0  0  0  0  0  0  0  0  0  0  0
    3.0943  -17.1920    0.0000 P   0  0  0  0  0  0  0  0  0  0  0  0
    4.5038  -16.6790    0.0000 O   0  0  0  0  0  0  0  0  0  0  0  0
    1.5943  -17.1920    0.0000 O   0  0  0  0  0  0  0  0  0  0  0  0
    0.8443  -18.4911    0.0000 C   0  0  0  0  0  0  0  0  0  0  0  0
   -0.6557  -18.4911    0.0000 C   0  0  0  0  0  0  0  0  0  0  0  0
   -1.4057  -19.7901    0.0000 C   0  0  0  0  0  0  0  0  0  0  0  0
   -0.6557  -21.0891    0.0000 C   0  0  0  0  0  0  0  0  0  0  0  0
    0.8443  -21.0891    0.0000 C   0  0  0  0  0  0  0  0  0  0  0  0
    1.5943  -19.7901    0.0000 C   0  0  0  0  0  0  0  0  0  0  0  0
    3.0943  -19.7901    0.0000 C   0  0  0  0  0  0  0  0  0  0  0  0
    3.8443  -21.0891    0.0000 C   0  0  0  0  0  0  0  0  0  0  0  0
    5.3443  -21.0891    0.0000 C   0  0  0  0  0  0  0  0  0  0  0  0
    6.0943  -19.7901    0.0000 C   0  0  0  0  0  0  0  0  0  0  0  0
    5.3443  -18.4911    0.0000 C   0  0  0  0  0  0  0  0  0  0  0  0
    3.8443  -18.4911    0.0000 C   0  0  0  0  0  0  0  0  0  0  0  0
    2.9410   -6.9134    0.0000 O   0  0  0  0  0  0  0  0  0  0  0  0
    3.2014   -5.4362    0.0000 C   0  0  0  0  0  0  0  0  0  0  0  0
    2.0524   -4.4720    0.0000 C   0  0  0  0  0  0  0  0  0  0  0  0
    2.3128   -2.9948    0.0000 C   0  0  0  0  0  0  0  0  0  0  0  0
    3.7224   -2.4818    0.0000 C   0  0  0  0  0  0  0  0  0  0  0  0
    4.8714   -3.4460    0.0000 C   0  0  0  0  0  0  0  0  0  0  0  0
    4.6110   -4.9232    0.0000 C   0  0  0  0  0  0  0  0  0  0  0  0
    5.7600   -5.8874    0.0000 C   0  0  0  0  0  0  0  0  0  0  0  0
    7.1696   -5.3743    0.0000 C   0  0  0  0  0  0  0  0  0  0  0  0
    8.3186   -6.3385    0.0000 C   0  0  0  0  0  0  0  0  0  0  0  0
    8.0582   -7.8157    0.0000 C   0  0  0  0  0  0  0  0  0  0  0  0
    6.6486   -8.3287    0.0000 C   0  0  0  0  0  0  0  0  0  0  0  0
    5.4996   -7.3646    0.0000 C   0  0  0  0  0  0  0  0  0  0  0  0
  1  2  2  0
  2  3  1  0
  3  4  1  0
  4  5  1  0
  5  6  1  0
  6  7  1  0
  4  8  1  0
  8  9  1  0
  9 10  1  0
 10 11  1  0
 11 12  1  0
 12 13  1  0
 13 14  1  0
 14 15  1  0
 15 16  1  0
 16 17  1  0
 17 18  1  0
 18 19  1  0
 19 20  1  0
 19 21  1  0
 15 22  1  0
 22 23  1  0
 23 24  2  0
 23 25  1  0
 25 26  1  0
 26 27  2  0
 27 28  1  0
 28 29  2  0
 29 30  1  0
 30 31  2  0
 31 32  1  0
 32 33  2  0
 33 34  1  0
 34 35  2  0
 35 36  1  0
 36 37  2  0
 11 38  1  0
 38 39  1  0
 39 40  1  0
 40 41  1  0
 41 42  1  0
 42 43  1  0
 43 44  1  0
 44 45  1  0
 45 46  1  0
 46 47  1  0
 47 48  1  0
 48 49  1  0
 49 50  1  0
 50 51  1  0
 51 52  1  0
 52 53  1  0
 53 54  1  0
 53 55  1  0
 49 56  1  0
 56 57  1  0
 57 58  2  0
 57 59  1  0
 59 60  1  0
 60 61  2  0
 61 62  1  0
 62 63  2  0
 63 64  1  0
 64 65  2  0
 65 66  1  0
 66 67  2  0
 67 68  1  0
 68 69  2  0
 69 70  1  0
 70 71  2  0
 45 72  1  0
 72 73  1  0
 73 74  1  0
 74 75  1  0
 75 76  1  0
 76 77  1  0
 77 78  1  0
 78 79  1  0
 79 80  1  0
 80 81  1  0
 81 82  1  0
 82 83  1  0
 75 84  1  0
 84 85  1  0
 85 86  2  0
 85 87  1  0
 87 88  1  0
 88 89  2  0
 89 90  1  0
 90 91  2  0
 91 92  1  0
 92 93  2  0
 93 94  1  0
 94 95  2  0
 95 96  1  0
 96 97  2  0
 97 98  1  0
 98 99  2  0
 41100  1  0
100101  1  0
101102  2  0
101103  1  0
103104  1  0
104105  2  0
105106  1  0
106107  2  0
107108  1  0
108109  2  0
109110  1  0
110111  2  0
111112  1  0
112113  2  0
113114  1  0
114115  2  0
  2116  1  0
116117  1  0
117118  2  0
118119  1  0
119120  2  0
120121  1  0
121122  2  0
122123  1  0
123124  2  0
124125  1  0
125126  2  0
126127  1  0
127128  2  0
128  2  1  0
 37 23  1  0
 71 57  1  0
 83 79  1  0
 99 85  1  0
115101  1  0
122117  1  0
128123  1  0
 31 26  1  0
 37 32  1  0
 65 60  1  0
 71 66  1  0
 93 88  1  0
 99 94  1  0
109104  1  0
115110  1  0
M  END
>  <Candidate_ID>  (392) 
CAND_R2_392

>  <Candidate_Name>  (392) 
BDHDP-boronic-ethylene

>  <Parent_Seed_ID>  (392) 
TRAIN_107

>  <Parent_Name>  (392) 
BDHDP

>  <Transformation_Code>  (392) 
boronic_ethylene

>  <Design_Family>  (392) 
P-N-B

>  <Preparation_Type>  (392) 
Additive

>  <Synthesis_Level>  (392) 
C

>  <Parent_Tanimoto_r3>  (392) 
0.8160919540229885

>  <Max_Train_Tanimoto_r3>  (392) 
0.8160919540229885

>  <Risk_Flags>  (392) 
high molecular weight; high DOPO count; exploratory only; excluded from formal screening

$$$$
CAND_R2_393 | BDHDP-boronic-ethylene-all
     RDKit          2D

132149  0  0  0  0  0  0  0  0999 V2000
   10.6168   -5.5600    0.0000 O   0  0  0  0  0  0  0  0  0  0  0  0
   11.7658   -6.5241    0.0000 P   0  0  0  0  0  0  0  0  0  0  0  0
   10.6168   -7.4883    0.0000 C   0  0  0  0  0  0  0  0  0  0  0  0
   10.8772   -8.9655    0.0000 N   0  0  0  0  0  0  0  0  0  0  0  0
   12.2868   -9.4786    0.0000 C   0  0  0  0  0  0  0  0  0  0  0  0
   13.4359   -8.5144    0.0000 C   0  0  0  0  0  0  0  0  0  0  0  0
   14.6794   -9.3532    0.0000 O   0  0  0  0  0  0  0  0  0  0  0  0
    9.7282   -9.9297    0.0000 C   0  0  0  0  0  0  0  0  0  0  0  0
    8.3186   -9.4167    0.0000 C   0  0  0  0  0  0  0  0  0  0  0  0
    7.1696  -10.3809    0.0000 O   0  0  0  0  0  0  0  0  0  0  0  0
    5.7600   -9.8678    0.0000 B   0  0  0  0  0  0  0  0  0  0  0  0
    5.4996   -8.3906    0.0000 O   0  0  0  0  0  0  0  0  0  0  0  0
    4.0900   -7.8776    0.0000 C   0  0  0  0  0  0  0  0  0  0  0  0
    3.8296   -6.4004    0.0000 C   0  0  0  0  0  0  0  0  0  0  0  0
    2.4200   -5.8874    0.0000 N   0  0  0  0  0  0  0  0  0  0  0  0
    1.2709   -6.8515    0.0000 C   0  0  0  0  0  0  0  0  0  0  0  0
    1.5314   -8.3287    0.0000 C   0  0  0  0  0  0  0  0  0  0  0  0
    0.3824   -9.2929    0.0000 O   0  0  0  0  0  0  0  0  0  0  0  0
    0.6428  -10.7701    0.0000 B   0  0  0  0  0  0  0  0  0  0  0  0
    1.9910  -11.4277    0.0000 O   0  0  0  0  0  0  0  0  0  0  0  0
    1.7823  -12.9131    0.0000 C   0  0  0  0  0  0  0  0  0  0  0  0
    0.3050  -13.1736    0.0000 C   0  0  0  0  0  0  0  0  0  0  0  0
   -0.3992  -11.8492    0.0000 O   0  0  0  0  0  0  0  0  0  0  0  0
    2.1595   -4.4101    0.0000 C   0  0  0  0  0  0  0  0  0  0  0  0
    0.7500   -3.8971    0.0000 P   0  0  0  0  0  0  0  0  0  0  0  0
    0.4895   -5.3743    0.0000 O   0  0  0  0  0  0  0  0  0  0  0  0
    1.5000   -2.5981    0.0000 O   0  0  0  0  0  0  0  0  0  0  0  0
    0.7500   -1.2990    0.0000 C   0  0  0  0  0  0  0  0  0  0  0  0
    1.5000   -0.0000    0.0000 C   0  0  0  0  0  0  0  0  0  0  0  0
    0.7500    1.2990    0.0000 C   0  0  0  0  0  0  0  0  0  0  0  0
   -0.7500    1.2990    0.0000 C   0  0  0  0  0  0  0  0  0  0  0  0
   -1.5000   -0.0000    0.0000 C   0  0  0  0  0  0  0  0  0  0  0  0
   -0.7500   -1.2990    0.0000 C   0  0  0  0  0  0  0  0  0  0  0  0
   -1.5000   -2.5981    0.0000 C   0  0  0  0  0  0  0  0  0  0  0  0
   -3.0000   -2.5981    0.0000 C   0  0  0  0  0  0  0  0  0  0  0  0
   -3.7500   -3.8971    0.0000 C   0  0  0  0  0  0  0  0  0  0  0  0
   -3.0000   -5.1962    0.0000 C   0  0  0  0  0  0  0  0  0  0  0  0
   -1.5000   -5.1962    0.0000 C   0  0  0  0  0  0  0  0  0  0  0  0
   -0.7500   -3.8971    0.0000 C   0  0  0  0  0  0  0  0  0  0  0  0
    4.6110  -10.8320    0.0000 O   0  0  0  0  0  0  0  0  0  0  0  0
    4.8714  -12.3092    0.0000 C   0  0  0  0  0  0  0  0  0  0  0  0
    3.7224  -13.2734    0.0000 C   0  0  0  0  0  0  0  0  0  0  0  0
    3.9828  -14.7506    0.0000 N   0  0  0  0  0  0  0  0  0  0  0  0
    2.8338  -15.7148    0.0000 C   0  0  0  0  0  0  0  0  0  0  0  0
    3.0943  -17.1920    0.0000 C   0  0  0  0  0  0  0  0  0  0  0  0
    1.9452  -18.1562    0.0000 O   0  0  0  0  0  0  0  0  0  0  0  0
    2.2057  -19.6334    0.0000 B   0  0  0  0  0  0  0  0  0  0  0  0
    1.0566  -20.5976    0.0000 O   0  0  0  0  0  0  0  0  0  0  0  0
   -0.3529  -20.0846    0.0000 C   0  0  0  0  0  0  0  0  0  0  0  0
   -1.5020  -21.0487    0.0000 C   0  0  0  0  0  0  0  0  0  0  0  0
   -2.9116  -20.5357    0.0000 N   0  0  0  0  0  0  0  0  0  0  0  0
   -4.0606  -21.4999    0.0000 C   0  0  0  0  0  0  0  0  0  0  0  0
   -3.8001  -22.9771    0.0000 C   0  0  0  0  0  0  0  0  0  0  0  0
   -4.9492  -23.9413    0.0000 O   0  0  0  0  0  0  0  0  0  0  0  0
   -4.6887  -25.4185    0.0000 B   0  0  0  0  0  0  0  0  0  0  0  0
   -3.3406  -26.0761    0.0000 O   0  0  0  0  0  0  0  0  0  0  0  0
   -3.5493  -27.5615    0.0000 C   0  0  0  0  0  0  0  0  0  0  0  0
   -5.0265  -27.8219    0.0000 C   0  0  0  0  0  0  0  0  0  0  0  0
   -5.7307  -26.4975    0.0000 O   0  0  0  0  0  0  0  0  0  0  0  0
   -3.1720  -19.0585    0.0000 C   0  0  0  0  0  0  0  0  0  0  0  0
   -4.5816  -18.5455    0.0000 P   0  0  0  0  0  0  0  0  0  0  0  0
   -4.8420  -20.0227    0.0000 O   0  0  0  0  0  0  0  0  0  0  0  0
   -3.8316  -17.2464    0.0000 O   0  0  0  0  0  0  0  0  0  0  0  0
   -4.5816  -15.9474    0.0000 C   0  0  0  0  0  0  0  0  0  0  0  0
   -3.8316  -14.6484    0.0000 C   0  0  0  0  0  0  0  0  0  0  0  0
   -4.5816  -13.3493    0.0000 C   0  0  0  0  0  0  0  0  0  0  0  0
   -6.0816  -13.3493    0.0000 C   0  0  0  0  0  0  0  0  0  0  0  0
   -6.8316  -14.6484    0.0000 C   0  0  0  0  0  0  0  0  0  0  0  0
   -6.0816  -15.9474    0.0000 C   0  0  0  0  0  0  0  0  0  0  0  0
   -6.8316  -17.2464    0.0000 C   0  0  0  0  0  0  0  0  0  0  0  0
   -8.3316  -17.2464    0.0000 C   0  0  0  0  0  0  0  0  0  0  0  0
   -9.0816  -18.5455    0.0000 C   0  0  0  0  0  0  0  0  0  0  0  0
   -8.3316  -19.8445    0.0000 C   0  0  0  0  0  0  0  0  0  0  0  0
   -6.8316  -19.8445    0.0000 C   0  0  0  0  0  0  0  0  0  0  0  0
   -6.0816  -18.5455    0.0000 C   0  0  0  0  0  0  0  0  0  0  0  0
    3.6152  -20.1464    0.0000 O   0  0  0  0  0  0  0  0  0  0  0  0
    3.8757  -21.6237    0.0000 C   0  0  0  0  0  0  0  0  0  0  0  0
    5.2852  -22.1367    0.0000 C   0  0  0  0  0  0  0  0  0  0  0  0
    5.5457  -23.6139    0.0000 N   0  0  0  0  0  0  0  0  0  0  0  0
    6.9552  -24.1269    0.0000 C   0  0  0  0  0  0  0  0  0  0  0  0
    8.1043  -23.1627    0.0000 C   0  0  0  0  0  0  0  0  0  0  0  0
    9.5138  -23.6758    0.0000 O   0  0  0  0  0  0  0  0  0  0  0  0
   10.6629  -22.7116    0.0000 B   0  0  0  0  0  0  0  0  0  0  0  0
   12.1183  -23.0745    0.0000 O   0  0  0  0  0  0  0  0  0  0  0  0
   12.9132  -21.8024    0.0000 C   0  0  0  0  0  0  0  0  0  0  0  0
   11.9490  -20.6533    0.0000 C   0  0  0  0  0  0  0  0  0  0  0  0
   10.5583  -21.2152    0.0000 O   0  0  0  0  0  0  0  0  0  0  0  0
    4.3966  -24.5781    0.0000 C   0  0  0  0  0  0  0  0  0  0  0  0
    4.6571  -26.0553    0.0000 P   0  0  0  0  0  0  0  0  0  0  0  0
    6.0666  -25.5423    0.0000 O   0  0  0  0  0  0  0  0  0  0  0  0
    3.1571  -26.0553    0.0000 O   0  0  0  0  0  0  0  0  0  0  0  0
    2.4071  -27.3543    0.0000 C   0  0  0  0  0  0  0  0  0  0  0  0
    0.9071  -27.3543    0.0000 C   0  0  0  0  0  0  0  0  0  0  0  0
    0.1571  -28.6534    0.0000 C   0  0  0  0  0  0  0  0  0  0  0  0
    0.9071  -29.9524    0.0000 C   0  0  0  0  0  0  0  0  0  0  0  0
    2.4071  -29.9524    0.0000 C   0  0  0  0  0  0  0  0  0  0  0  0
    3.1571  -28.6534    0.0000 C   0  0  0  0  0  0  0  0  0  0  0  0
    4.6571  -28.6534    0.0000 C   0  0  0  0  0  0  0  0  0  0  0  0
    5.4071  -29.9524    0.0000 C   0  0  0  0  0  0  0  0  0  0  0  0
    6.9071  -29.9524    0.0000 C   0  0  0  0  0  0  0  0  0  0  0  0
    7.6571  -28.6534    0.0000 C   0  0  0  0  0  0  0  0  0  0  0  0
    6.9071  -27.3543    0.0000 C   0  0  0  0  0  0  0  0  0  0  0  0
    5.4071  -27.3543    0.0000 C   0  0  0  0  0  0  0  0  0  0  0  0
    5.3924  -15.2637    0.0000 C   0  0  0  0  0  0  0  0  0  0  0  0
    6.5415  -14.2995    0.0000 P   0  0  0  0  0  0  0  0  0  0  0  0
    5.3924  -13.3353    0.0000 O   0  0  0  0  0  0  0  0  0  0  0  0
    7.2915  -15.5985    0.0000 O   0  0  0  0  0  0  0  0  0  0  0  0
    8.7915  -15.5985    0.0000 C   0  0  0  0  0  0  0  0  0  0  0  0
    9.5415  -16.8976    0.0000 C   0  0  0  0  0  0  0  0  0  0  0  0
   11.0415  -16.8976    0.0000 C   0  0  0  0  0  0  0  0  0  0  0  0
   11.7915  -15.5985    0.0000 C   0  0  0  0  0  0  0  0  0  0  0  0
   11.0415  -14.2995    0.0000 C   0  0  0  0  0  0  0  0  0  0  0  0
    9.5415  -14.2995    0.0000 C   0  0  0  0  0  0  0  0  0  0  0  0
    8.7915  -13.0004    0.0000 C   0  0  0  0  0  0  0  0  0  0  0  0
    9.5415  -11.7014    0.0000 C   0  0  0  0  0  0  0  0  0  0  0  0
    8.7915  -10.4024    0.0000 C   0  0  0  0  0  0  0  0  0  0  0  0
    7.2915  -10.4024    0.0000 C   0  0  0  0  0  0  0  0  0  0  0  0
    6.5415  -11.7014    0.0000 C   0  0  0  0  0  0  0  0  0  0  0  0
    7.2915  -13.0004    0.0000 C   0  0  0  0  0  0  0  0  0  0  0  0
   12.5158   -7.8232    0.0000 O   0  0  0  0  0  0  0  0  0  0  0  0
   14.0158   -7.8232    0.0000 C   0  0  0  0  0  0  0  0  0  0  0  0
   14.7658   -9.1222    0.0000 C   0  0  0  0  0  0  0  0  0  0  0  0
   16.2658   -9.1222    0.0000 C   0  0  0  0  0  0  0  0  0  0  0  0
   17.0158   -7.8232    0.0000 C   0  0  0  0  0  0  0  0  0  0  0  0
   16.2658   -6.5241    0.0000 C   0  0  0  0  0  0  0  0  0  0  0  0
   14.7658   -6.5241    0.0000 C   0  0  0  0  0  0  0  0  0  0  0  0
   14.0158   -5.2251    0.0000 C   0  0  0  0  0  0  0  0  0  0  0  0
   14.7658   -3.9261    0.0000 C   0  0  0  0  0  0  0  0  0  0  0  0
   14.0158   -2.6270    0.0000 C   0  0  0  0  0  0  0  0  0  0  0  0
   12.5158   -2.6270    0.0000 C   0  0  0  0  0  0  0  0  0  0  0  0
   11.7658   -3.9261    0.0000 C   0  0  0  0  0  0  0  0  0  0  0  0
   12.5158   -5.2251    0.0000 C   0  0  0  0  0  0  0  0  0  0  0  0
  1  2  2  0
  2  3  1  0
  3  4  1  0
  4  5  1  0
  5  6  1  0
  6  7  1  0
  4  8  1  0
  8  9  1  0
  9 10  1  0
 10 11  1  0
 11 12  1  0
 12 13  1  0
 13 14  1  0
 14 15  1  0
 15 16  1  0
 16 17  1  0
 17 18  1  0
 18 19  1  0
 19 20  1  0
 20 21  1  0
 21 22  1  0
 22 23  1  0
 15 24  1  0
 24 25  1  0
 25 26  2  0
 25 27  1  0
 27 28  1  0
 28 29  2  0
 29 30  1  0
 30 31  2  0
 31 32  1  0
 32 33  2  0
 33 34  1  0
 34 35  2  0
 35 36  1  0
 36 37  2  0
 37 38  1  0
 38 39  2  0
 11 40  1  0
 40 41  1  0
 41 42  1  0
 42 43  1  0
 43 44  1  0
 44 45  1  0
 45 46  1  0
 46 47  1  0
 47 48  1  0
 48 49  1  0
 49 50  1  0
 50 51  1  0
 51 52  1  0
 52 53  1  0
 53 54  1  0
 54 55  1  0
 55 56  1  0
 56 57  1  0
 57 58  1  0
 58 59  1  0
 51 60  1  0
 60 61  1  0
 61 62  2  0
 61 63  1  0
 63 64  1  0
 64 65  2  0
 65 66  1  0
 66 67  2  0
 67 68  1  0
 68 69  2  0
 69 70  1  0
 70 71  2  0
 71 72  1  0
 72 73  2  0
 73 74  1  0
 74 75  2  0
 47 76  1  0
 76 77  1  0
 77 78  1  0
 78 79  1  0
 79 80  1  0
 80 81  1  0
 81 82  1  0
 82 83  1  0
 83 84  1  0
 84 85  1  0
 85 86  1  0
 86 87  1  0
 79 88  1  0
 88 89  1  0
 89 90  2  0
 89 91  1  0
 91 92  1  0
 92 93  2  0
 93 94  1  0
 94 95  2  0
 95 96  1  0
 96 97  2  0
 97 98  1  0
 98 99  2  0
 99100  1  0
100101  2  0
101102  1  0
102103  2  0
 43104  1  0
104105  1  0
105106  2  0
105107  1  0
107108  1  0
108109  2  0
109110  1  0
110111  2  0
111112  1  0
112113  2  0
113114  1  0
114115  2  0
115116  1  0
116117  2  0
117118  1  0
118119  2  0
  2120  1  0
120121  1  0
121122  2  0
122123  1  0
123124  2  0
124125  1  0
125126  2  0
126127  1  0
127128  2  0
128129  1  0
129130  2  0
130131  1  0
131132  2  0
132  2  1  0
 23 19  1  0
 39 25  1  0
 59 55  1  0
 75 61  1  0
 87 83  1  0
103 89  1  0
119105  1  0
126121  1  0
132127  1  0
 33 28  1  0
 39 34  1  0
 69 64  1  0
 75 70  1  0
 97 92  1  0
103 98  1  0
113108  1  0
119114  1  0
M  END
>  <Candidate_ID>  (393) 
CAND_R2_393

>  <Candidate_Name>  (393) 
BDHDP-boronic-ethylene-all

>  <Parent_Seed_ID>  (393) 
TRAIN_107

>  <Parent_Name>  (393) 
BDHDP

>  <Transformation_Code>  (393) 
boronic_ethylene_all

>  <Design_Family>  (393) 
P-N-B

>  <Preparation_Type>  (393) 
Additive

>  <Synthesis_Level>  (393) 
C

>  <Parent_Tanimoto_r3>  (393) 
0.7471264367816092

>  <Max_Train_Tanimoto_r3>  (393) 
0.7471264367816092

>  <Risk_Flags>  (393) 
high molecular weight; high DOPO count; exploratory only; excluded from formal screening

$$$$
CAND_R2_394 | BDHDP-boronic-pinacol
     RDKit          2D

132147  0  0  0  0  0  0  0  0999 V2000
    8.1192   -1.6024    0.0000 C   0  0  0  0  0  0  0  0  0  0  0  0
    8.8234   -2.9268    0.0000 C   0  0  0  0  0  0  0  0  0  0  0  0
   10.0669   -2.0880    0.0000 C   0  0  0  0  0  0  0  0  0  0  0  0
    7.4326   -3.4887    0.0000 O   0  0  0  0  0  0  0  0  0  0  0  0
    7.5372   -4.9851    0.0000 B   0  0  0  0  0  0  0  0  0  0  0  0
    6.3882   -5.9492    0.0000 O   0  0  0  0  0  0  0  0  0  0  0  0
    6.6486   -7.4264    0.0000 C   0  0  0  0  0  0  0  0  0  0  0  0
    5.4996   -8.3906    0.0000 C   0  0  0  0  0  0  0  0  0  0  0  0
    5.7600   -9.8678    0.0000 N   0  0  0  0  0  0  0  0  0  0  0  0
    4.6110  -10.8320    0.0000 C   0  0  0  0  0  0  0  0  0  0  0  0
    3.2014  -10.3190    0.0000 C   0  0  0  0  0  0  0  0  0  0  0  0
    2.0524  -11.2832    0.0000 O   0  0  0  0  0  0  0  0  0  0  0  0
    0.6428  -10.7701    0.0000 B   0  0  0  0  0  0  0  0  0  0  0  0
    0.3824   -9.2929    0.0000 O   0  0  0  0  0  0  0  0  0  0  0  0
    1.5314   -8.3287    0.0000 C   0  0  0  0  0  0  0  0  0  0  0  0
    1.2709   -6.8515    0.0000 C   0  0  0  0  0  0  0  0  0  0  0  0
    2.4200   -5.8874    0.0000 N   0  0  0  0  0  0  0  0  0  0  0  0
    3.8296   -6.4004    0.0000 C   0  0  0  0  0  0  0  0  0  0  0  0
    4.0900   -7.8776    0.0000 C   0  0  0  0  0  0  0  0  0  0  0  0
    2.9410   -8.8418    0.0000 O   0  0  0  0  0  0  0  0  0  0  0  0
    2.1595   -4.4101    0.0000 C   0  0  0  0  0  0  0  0  0  0  0  0
    0.7500   -3.8971    0.0000 P   0  0  0  0  0  0  0  0  0  0  0  0
    0.4895   -5.3743    0.0000 O   0  0  0  0  0  0  0  0  0  0  0  0
    1.5000   -2.5981    0.0000 O   0  0  0  0  0  0  0  0  0  0  0  0
    0.7500   -1.2990    0.0000 C   0  0  0  0  0  0  0  0  0  0  0  0
    1.5000    0.0000    0.0000 C   0  0  0  0  0  0  0  0  0  0  0  0
    0.7500    1.2990    0.0000 C   0  0  0  0  0  0  0  0  0  0  0  0
   -0.7500    1.2990    0.0000 C   0  0  0  0  0  0  0  0  0  0  0  0
   -1.5000    0.0000    0.0000 C   0  0  0  0  0  0  0  0  0  0  0  0
   -0.7500   -1.2990    0.0000 C   0  0  0  0  0  0  0  0  0  0  0  0
   -1.5000   -2.5981    0.0000 C   0  0  0  0  0  0  0  0  0  0  0  0
   -3.0000   -2.5981    0.0000 C   0  0  0  0  0  0  0  0  0  0  0  0
   -3.7500   -3.8971    0.0000 C   0  0  0  0  0  0  0  0  0  0  0  0
   -3.0000   -5.1962    0.0000 C   0  0  0  0  0  0  0  0  0  0  0  0
   -1.5000   -5.1962    0.0000 C   0  0  0  0  0  0  0  0  0  0  0  0
   -0.7500   -3.8971    0.0000 C   0  0  0  0  0  0  0  0  0  0  0  0
   -0.5062  -11.7343    0.0000 O   0  0  0  0  0  0  0  0  0  0  0  0
   -0.2458  -13.2115    0.0000 C   0  0  0  0  0  0  0  0  0  0  0  0
   -1.3948  -14.1757    0.0000 C   0  0  0  0  0  0  0  0  0  0  0  0
   -1.1344  -15.6529    0.0000 N   0  0  0  0  0  0  0  0  0  0  0  0
   -2.2834  -16.6171    0.0000 C   0  0  0  0  0  0  0  0  0  0  0  0
   -3.6930  -16.1041    0.0000 C   0  0  0  0  0  0  0  0  0  0  0  0
   -4.8420  -17.0683    0.0000 O   0  0  0  0  0  0  0  0  0  0  0  0
   -6.2516  -16.5552    0.0000 B   0  0  0  0  0  0  0  0  0  0  0  0
   -7.4006  -17.5194    0.0000 O   0  0  0  0  0  0  0  0  0  0  0  0
   -7.1402  -18.9966    0.0000 C   0  0  0  0  0  0  0  0  0  0  0  0
   -8.2892  -19.9608    0.0000 C   0  0  0  0  0  0  0  0  0  0  0  0
   -8.0288  -21.4380    0.0000 N   0  0  0  0  0  0  0  0  0  0  0  0
   -9.1778  -22.4022    0.0000 C   0  0  0  0  0  0  0  0  0  0  0  0
  -10.5874  -21.8892    0.0000 C   0  0  0  0  0  0  0  0  0  0  0  0
  -11.7364  -22.8533    0.0000 O   0  0  0  0  0  0  0  0  0  0  0  0
  -13.1460  -22.3403    0.0000 B   0  0  0  0  0  0  0  0  0  0  0  0
  -14.2950  -23.3045    0.0000 O   0  0  0  0  0  0  0  0  0  0  0  0
  -13.4064  -20.8631    0.0000 O   0  0  0  0  0  0  0  0  0  0  0  0
   -6.6192  -21.9510    0.0000 C   0  0  0  0  0  0  0  0  0  0  0  0
   -6.3588  -23.4283    0.0000 P   0  0  0  0  0  0  0  0  0  0  0  0
   -7.8588  -23.4283    0.0000 O   0  0  0  0  0  0  0  0  0  0  0  0
   -4.9492  -22.9152    0.0000 O   0  0  0  0  0  0  0  0  0  0  0  0
   -3.8001  -23.8794    0.0000 C   0  0  0  0  0  0  0  0  0  0  0  0
   -2.3906  -23.3664    0.0000 C   0  0  0  0  0  0  0  0  0  0  0  0
   -1.2415  -24.3306    0.0000 C   0  0  0  0  0  0  0  0  0  0  0  0
   -1.5020  -25.8078    0.0000 C   0  0  0  0  0  0  0  0  0  0  0  0
   -2.9116  -26.3208    0.0000 C   0  0  0  0  0  0  0  0  0  0  0  0
   -4.0606  -25.3566    0.0000 C   0  0  0  0  0  0  0  0  0  0  0  0
   -5.4702  -25.8697    0.0000 C   0  0  0  0  0  0  0  0  0  0  0  0
   -5.7306  -27.3469    0.0000 C   0  0  0  0  0  0  0  0  0  0  0  0
   -7.1402  -27.8599    0.0000 C   0  0  0  0  0  0  0  0  0  0  0  0
   -8.2892  -26.8957    0.0000 C   0  0  0  0  0  0  0  0  0  0  0  0
   -8.0288  -25.4185    0.0000 C   0  0  0  0  0  0  0  0  0  0  0  0
   -6.6192  -24.9055    0.0000 C   0  0  0  0  0  0  0  0  0  0  0  0
   -6.5120  -15.0780    0.0000 O   0  0  0  0  0  0  0  0  0  0  0  0
   -7.9216  -14.5650    0.0000 C   0  0  0  0  0  0  0  0  0  0  0  0
   -8.1821  -13.0878    0.0000 C   0  0  0  0  0  0  0  0  0  0  0  0
   -9.5916  -12.5747    0.0000 N   0  0  0  0  0  0  0  0  0  0  0  0
   -9.8521  -11.0975    0.0000 C   0  0  0  0  0  0  0  0  0  0  0  0
   -8.7030  -10.1334    0.0000 C   0  0  0  0  0  0  0  0  0  0  0  0
   -8.9635   -8.6561    0.0000 O   0  0  0  0  0  0  0  0  0  0  0  0
   -7.8144   -7.6920    0.0000 B   0  0  0  0  0  0  0  0  0  0  0  0
   -8.0749   -6.2147    0.0000 O   0  0  0  0  0  0  0  0  0  0  0  0
   -6.4049   -8.2050    0.0000 O   0  0  0  0  0  0  0  0  0  0  0  0
  -10.7407  -13.5389    0.0000 C   0  0  0  0  0  0  0  0  0  0  0  0
  -12.1502  -13.0259    0.0000 P   0  0  0  0  0  0  0  0  0  0  0  0
  -11.4002  -11.7269    0.0000 O   0  0  0  0  0  0  0  0  0  0  0  0
  -12.4107  -14.5031    0.0000 O   0  0  0  0  0  0  0  0  0  0  0  0
  -13.8202  -15.0161    0.0000 C   0  0  0  0  0  0  0  0  0  0  0  0
  -14.0807  -16.4934    0.0000 C   0  0  0  0  0  0  0  0  0  0  0  0
  -15.4902  -17.0064    0.0000 C   0  0  0  0  0  0  0  0  0  0  0  0
  -16.6393  -16.0422    0.0000 C   0  0  0  0  0  0  0  0  0  0  0  0
  -16.3788  -14.5650    0.0000 C   0  0  0  0  0  0  0  0  0  0  0  0
  -14.9693  -14.0520    0.0000 C   0  0  0  0  0  0  0  0  0  0  0  0
  -14.7088  -12.5747    0.0000 C   0  0  0  0  0  0  0  0  0  0  0  0
  -15.8579  -11.6106    0.0000 C   0  0  0  0  0  0  0  0  0  0  0  0
  -15.5974  -10.1334    0.0000 C   0  0  0  0  0  0  0  0  0  0  0  0
  -14.1879   -9.6203    0.0000 C   0  0  0  0  0  0  0  0  0  0  0  0
  -13.0388  -10.5845    0.0000 C   0  0  0  0  0  0  0  0  0  0  0  0
  -13.2993  -12.0617    0.0000 C   0  0  0  0  0  0  0  0  0  0  0  0
    0.2752  -16.1660    0.0000 C   0  0  0  0  0  0  0  0  0  0  0  0
    0.5356  -17.6432    0.0000 P   0  0  0  0  0  0  0  0  0  0  0  0
   -0.9644  -17.6432    0.0000 O   0  0  0  0  0  0  0  0  0  0  0  0
    1.9452  -17.1301    0.0000 O   0  0  0  0  0  0  0  0  0  0  0  0
    3.0943  -18.0943    0.0000 C   0  0  0  0  0  0  0  0  0  0  0  0
    4.5038  -17.5813    0.0000 C   0  0  0  0  0  0  0  0  0  0  0  0
    5.6529  -18.5455    0.0000 C   0  0  0  0  0  0  0  0  0  0  0  0
    5.3924  -20.0227    0.0000 C   0  0  0  0  0  0  0  0  0  0  0  0
    3.9828  -20.5357    0.0000 C   0  0  0  0  0  0  0  0  0  0  0  0
    2.8338  -19.5715    0.0000 C   0  0  0  0  0  0  0  0  0  0  0  0
    1.4242  -20.0846    0.0000 C   0  0  0  0  0  0  0  0  0  0  0  0
    1.1638  -21.5618    0.0000 C   0  0  0  0  0  0  0  0  0  0  0  0
   -0.2458  -22.0748    0.0000 C   0  0  0  0  0  0  0  0  0  0  0  0
   -1.3948  -21.1106    0.0000 C   0  0  0  0  0  0  0  0  0  0  0  0
   -1.1344  -19.6334    0.0000 C   0  0  0  0  0  0  0  0  0  0  0  0
    0.2752  -19.1204    0.0000 C   0  0  0  0  0  0  0  0  0  0  0  0
    7.1696  -10.3809    0.0000 C   0  0  0  0  0  0  0  0  0  0  0  0
    7.4300  -11.8581    0.0000 P   0  0  0  0  0  0  0  0  0  0  0  0
    5.9300  -11.8581    0.0000 O   0  0  0  0  0  0  0  0  0  0  0  0
    8.8396  -11.3451    0.0000 O   0  0  0  0  0  0  0  0  0  0  0  0
    9.9887  -12.3092    0.0000 C   0  0  0  0  0  0  0  0  0  0  0  0
   11.3982  -11.7962    0.0000 C   0  0  0  0  0  0  0  0  0  0  0  0
   12.5473  -12.7604    0.0000 C   0  0  0  0  0  0  0  0  0  0  0  0
   12.2868  -14.2376    0.0000 C   0  0  0  0  0  0  0  0  0  0  0  0
   10.8772  -14.7506    0.0000 C   0  0  0  0  0  0  0  0  0  0  0  0
    9.7282  -13.7864    0.0000 C   0  0  0  0  0  0  0  0  0  0  0  0
    8.3186  -14.2995    0.0000 C   0  0  0  0  0  0  0  0  0  0  0  0
    8.0582  -15.7767    0.0000 C   0  0  0  0  0  0  0  0  0  0  0  0
    6.6486  -16.2897    0.0000 C   0  0  0  0  0  0  0  0  0  0  0  0
    5.4996  -15.3255    0.0000 C   0  0  0  0  0  0  0  0  0  0  0  0
    5.7600  -13.8483    0.0000 C   0  0  0  0  0  0  0  0  0  0  0  0
    7.1696  -13.3353    0.0000 C   0  0  0  0  0  0  0  0  0  0  0  0
    8.9927   -5.3479    0.0000 O   0  0  0  0  0  0  0  0  0  0  0  0
    9.7875   -4.0759    0.0000 C   0  0  0  0  0  0  0  0  0  0  0  0
   10.8295   -2.9969    0.0000 C   0  0  0  0  0  0  0  0  0  0  0  0
   10.9696   -4.9994    0.0000 C   0  0  0  0  0  0  0  0  0  0  0  0
  1  2  1  0
  2  3  1  0
  2  4  1  0
  4  5  1  0
  5  6  1  0
  6  7  1  0
  7  8  1  0
  8  9  1  0
  9 10  1  0
 10 11  1  0
 11 12  1  0
 12 13  1  0
 13 14  1  0
 14 15  1  0
 15 16  1  0
 16 17  1  0
 17 18  1  0
 18 19  1  0
 19 20  1  0
 17 21  1  0
 21 22  1  0
 22 23  2  0
 22 24  1  0
 24 25  1  0
 25 26  2  0
 26 27  1  0
 27 28  2  0
 28 29  1  0
 29 30  2  0
 30 31  1  0
 31 32  2  0
 32 33  1  0
 33 34  2  0
 34 35  1  0
 35 36  2  0
 13 37  1  0
 37 38  1  0
 38 39  1  0
 39 40  1  0
 40 41  1  0
 41 42  1  0
 42 43  1  0
 43 44  1  0
 44 45  1  0
 45 46  1  0
 46 47  1  0
 47 48  1  0
 48 49  1  0
 49 50  1  0
 50 51  1  0
 51 52  1  0
 52 53  1  0
 52 54  1  0
 48 55  1  0
 55 56  1  0
 56 57  2  0
 56 58  1  0
 58 59  1  0
 59 60  2  0
 60 61  1  0
 61 62  2  0
 62 63  1  0
 63 64  2  0
 64 65  1  0
 65 66  2  0
 66 67  1  0
 67 68  2  0
 68 69  1  0
 69 70  2  0
 44 71  1  0
 71 72  1  0
 72 73  1  0
 73 74  1  0
 74 75  1  0
 75 76  1  0
 76 77  1  0
 77 78  1  0
 78 79  1  0
 78 80  1  0
 74 81  1  0
 81 82  1  0
 82 83  2  0
 82 84  1  0
 84 85  1  0
 85 86  2  0
 86 87  1  0
 87 88  2  0
 88 89  1  0
 89 90  2  0
 90 91  1  0
 91 92  2  0
 92 93  1  0
 93 94  2  0
 94 95  1  0
 95 96  2  0
 40 97  1  0
 97 98  1  0
 98 99  2  0
 98100  1  0
100101  1  0
101102  2  0
102103  1  0
103104  2  0
104105  1  0
105106  2  0
106107  1  0
107108  2  0
108109  1  0
109110  2  0
110111  1  0
111112  2  0
  9113  1  0
113114  1  0
114115  2  0
114116  1  0
116117  1  0
117118  2  0
118119  1  0
119120  2  0
120121  1  0
121122  2  0
122123  1  0
123124  2  0
124125  1  0
125126  2  0
126127  1  0
127128  2  0
  5129  1  0
129130  1  0
130131  1  0
130132  1  0
130  2  1  0
 36 22  1  0
 70 56  1  0
 96 82  1  0
112 98  1  0
128114  1  0
 30 25  1  0
 36 31  1  0
 64 59  1  0
 70 65  1  0
 90 85  1  0
 96 91  1  0
106101  1  0
112107  1  0
122117  1  0
128123  1  0
M  END
>  <Candidate_ID>  (394) 
CAND_R2_394

>  <Candidate_Name>  (394) 
BDHDP-boronic-pinacol

>  <Parent_Seed_ID>  (394) 
TRAIN_107

>  <Parent_Name>  (394) 
BDHDP

>  <Transformation_Code>  (394) 
boronic_pinacol

>  <Design_Family>  (394) 
P-N-B

>  <Preparation_Type>  (394) 
Additive

>  <Synthesis_Level>  (394) 
C

>  <Parent_Tanimoto_r3>  (394) 
0.797752808988764

>  <Max_Train_Tanimoto_r3>  (394) 
0.797752808988764

>  <Risk_Flags>  (394) 
high molecular weight; high DOPO count; exploratory only; excluded from formal screening

$$$$
CAND_R2_395 | BDHDP-boronic-pinacol-2
     RDKit          2D

132147  0  0  0  0  0  0  0  0999 V2000
    8.1192   -1.6024    0.0000 C   0  0  0  0  0  0  0  0  0  0  0  0
    8.8234   -2.9268    0.0000 C   0  0  0  0  0  0  0  0  0  0  0  0
   10.0669   -2.0880    0.0000 C   0  0  0  0  0  0  0  0  0  0  0  0
    7.4326   -3.4887    0.0000 O   0  0  0  0  0  0  0  0  0  0  0  0
    7.5372   -4.9851    0.0000 B   0  0  0  0  0  0  0  0  0  0  0  0
    6.3882   -5.9492    0.0000 O   0  0  0  0  0  0  0  0  0  0  0  0
    6.6486   -7.4264    0.0000 C   0  0  0  0  0  0  0  0  0  0  0  0
    5.4996   -8.3906    0.0000 C   0  0  0  0  0  0  0  0  0  0  0  0
    5.7600   -9.8678    0.0000 N   0  0  0  0  0  0  0  0  0  0  0  0
    4.6110  -10.8320    0.0000 C   0  0  0  0  0  0  0  0  0  0  0  0
    3.2014  -10.3190    0.0000 C   0  0  0  0  0  0  0  0  0  0  0  0
    2.0524  -11.2832    0.0000 O   0  0  0  0  0  0  0  0  0  0  0  0
    0.6428  -10.7701    0.0000 B   0  0  0  0  0  0  0  0  0  0  0  0
    0.3824   -9.2929    0.0000 O   0  0  0  0  0  0  0  0  0  0  0  0
    1.5314   -8.3287    0.0000 C   0  0  0  0  0  0  0  0  0  0  0  0
    1.2709   -6.8515    0.0000 C   0  0  0  0  0  0  0  0  0  0  0  0
    2.4200   -5.8874    0.0000 N   0  0  0  0  0  0  0  0  0  0  0  0
    3.8296   -6.4004    0.0000 C   0  0  0  0  0  0  0  0  0  0  0  0
    4.9786   -5.4362    0.0000 C   0  0  0  0  0  0  0  0  0  0  0  0
    4.7181   -3.9590    0.0000 O   0  0  0  0  0  0  0  0  0  0  0  0
    5.8672   -2.9948    0.0000 B   0  0  0  0  0  0  0  0  0  0  0  0
    6.6600   -3.0781    0.0000 O   0  0  0  0  0  0  0  0  0  0  0  0
    5.6067   -1.5176    0.0000 O   0  0  0  0  0  0  0  0  0  0  0  0
    2.1595   -4.4101    0.0000 C   0  0  0  0  0  0  0  0  0  0  0  0
    0.7500   -3.8971    0.0000 P   0  0  0  0  0  0  0  0  0  0  0  0
    0.4895   -5.3743    0.0000 O   0  0  0  0  0  0  0  0  0  0  0  0
    1.5000   -2.5981    0.0000 O   0  0  0  0  0  0  0  0  0  0  0  0
    0.7500   -1.2990    0.0000 C   0  0  0  0  0  0  0  0  0  0  0  0
    1.5000    0.0000    0.0000 C   0  0  0  0  0  0  0  0  0  0  0  0
    0.7500    1.2990    0.0000 C   0  0  0  0  0  0  0  0  0  0  0  0
   -0.7500    1.2990    0.0000 C   0  0  0  0  0  0  0  0  0  0  0  0
   -1.5000    0.0000    0.0000 C   0  0  0  0  0  0  0  0  0  0  0  0
   -0.7500   -1.2990    0.0000 C   0  0  0  0  0  0  0  0  0  0  0  0
   -1.5000   -2.5981    0.0000 C   0  0  0  0  0  0  0  0  0  0  0  0
   -3.0000   -2.5981    0.0000 C   0  0  0  0  0  0  0  0  0  0  0  0
   -3.7500   -3.8971    0.0000 C   0  0  0  0  0  0  0  0  0  0  0  0
   -3.0000   -5.1962    0.0000 C   0  0  0  0  0  0  0  0  0  0  0  0
   -1.5000   -5.1962    0.0000 C   0  0  0  0  0  0  0  0  0  0  0  0
   -0.7500   -3.8971    0.0000 C   0  0  0  0  0  0  0  0  0  0  0  0
   -0.5062  -11.7343    0.0000 O   0  0  0  0  0  0  0  0  0  0  0  0
   -0.2458  -13.2115    0.0000 C   0  0  0  0  0  0  0  0  0  0  0  0
   -1.3948  -14.1757    0.0000 C   0  0  0  0  0  0  0  0  0  0  0  0
   -1.1344  -15.6529    0.0000 N   0  0  0  0  0  0  0  0  0  0  0  0
   -2.2834  -16.6171    0.0000 C   0  0  0  0  0  0  0  0  0  0  0  0
   -3.6930  -16.1041    0.0000 C   0  0  0  0  0  0  0  0  0  0  0  0
   -4.8420  -17.0683    0.0000 O   0  0  0  0  0  0  0  0  0  0  0  0
   -6.2516  -16.5552    0.0000 B   0  0  0  0  0  0  0  0  0  0  0  0
   -7.4006  -17.5194    0.0000 O   0  0  0  0  0  0  0  0  0  0  0  0
   -7.1402  -18.9966    0.0000 C   0  0  0  0  0  0  0  0  0  0  0  0
   -8.2892  -19.9608    0.0000 C   0  0  0  0  0  0  0  0  0  0  0  0
   -8.0288  -21.4380    0.0000 N   0  0  0  0  0  0  0  0  0  0  0  0
   -9.1778  -22.4022    0.0000 C   0  0  0  0  0  0  0  0  0  0  0  0
   -8.9174  -23.8794    0.0000 C   0  0  0  0  0  0  0  0  0  0  0  0
  -10.0664  -24.8436    0.0000 O   0  0  0  0  0  0  0  0  0  0  0  0
   -6.6192  -21.9510    0.0000 C   0  0  0  0  0  0  0  0  0  0  0  0
   -6.3588  -23.4283    0.0000 P   0  0  0  0  0  0  0  0  0  0  0  0
   -7.8588  -23.4283    0.0000 O   0  0  0  0  0  0  0  0  0  0  0  0
   -4.9492  -22.9152    0.0000 O   0  0  0  0  0  0  0  0  0  0  0  0
   -3.8001  -23.8794    0.0000 C   0  0  0  0  0  0  0  0  0  0  0  0
   -2.3906  -23.3664    0.0000 C   0  0  0  0  0  0  0  0  0  0  0  0
   -1.2415  -24.3306    0.0000 C   0  0  0  0  0  0  0  0  0  0  0  0
   -1.5020  -25.8078    0.0000 C   0  0  0  0  0  0  0  0  0  0  0  0
   -2.9116  -26.3208    0.0000 C   0  0  0  0  0  0  0  0  0  0  0  0
   -4.0606  -25.3566    0.0000 C   0  0  0  0  0  0  0  0  0  0  0  0
   -5.4702  -25.8697    0.0000 C   0  0  0  0  0  0  0  0  0  0  0  0
   -5.7306  -27.3469    0.0000 C   0  0  0  0  0  0  0  0  0  0  0  0
   -7.1402  -27.8599    0.0000 C   0  0  0  0  0  0  0  0  0  0  0  0
   -8.2892  -26.8957    0.0000 C   0  0  0  0  0  0  0  0  0  0  0  0
   -8.0288  -25.4185    0.0000 C   0  0  0  0  0  0  0  0  0  0  0  0
   -6.6192  -24.9055    0.0000 C   0  0  0  0  0  0  0  0  0  0  0  0
   -6.5120  -15.0780    0.0000 O   0  0  0  0  0  0  0  0  0  0  0  0
   -7.9216  -14.5650    0.0000 C   0  0  0  0  0  0  0  0  0  0  0  0
   -8.1821  -13.0878    0.0000 C   0  0  0  0  0  0  0  0  0  0  0  0
   -9.5916  -12.5747    0.0000 N   0  0  0  0  0  0  0  0  0  0  0  0
   -9.8521  -11.0975    0.0000 C   0  0  0  0  0  0  0  0  0  0  0  0
   -8.7030  -10.1334    0.0000 C   0  0  0  0  0  0  0  0  0  0  0  0
   -8.9635   -8.6561    0.0000 O   0  0  0  0  0  0  0  0  0  0  0  0
   -7.8144   -7.6920    0.0000 B   0  0  0  0  0  0  0  0  0  0  0  0
   -8.0749   -6.2147    0.0000 O   0  0  0  0  0  0  0  0  0  0  0  0
   -6.4049   -8.2050    0.0000 O   0  0  0  0  0  0  0  0  0  0  0  0
  -10.7407  -13.5389    0.0000 C   0  0  0  0  0  0  0  0  0  0  0  0
  -12.1502  -13.0259    0.0000 P   0  0  0  0  0  0  0  0  0  0  0  0
  -11.4002  -11.7269    0.0000 O   0  0  0  0  0  0  0  0  0  0  0  0
  -12.4107  -14.5031    0.0000 O   0  0  0  0  0  0  0  0  0  0  0  0
  -13.8202  -15.0161    0.0000 C   0  0  0  0  0  0  0  0  0  0  0  0
  -14.0807  -16.4934    0.0000 C   0  0  0  0  0  0  0  0  0  0  0  0
  -15.4902  -17.0064    0.0000 C   0  0  0  0  0  0  0  0  0  0  0  0
  -16.6393  -16.0422    0.0000 C   0  0  0  0  0  0  0  0  0  0  0  0
  -16.3788  -14.5650    0.0000 C   0  0  0  0  0  0  0  0  0  0  0  0
  -14.9693  -14.0520    0.0000 C   0  0  0  0  0  0  0  0  0  0  0  0
  -14.7088  -12.5747    0.0000 C   0  0  0  0  0  0  0  0  0  0  0  0
  -15.8579  -11.6106    0.0000 C   0  0  0  0  0  0  0  0  0  0  0  0
  -15.5974  -10.1334    0.0000 C   0  0  0  0  0  0  0  0  0  0  0  0
  -14.1879   -9.6203    0.0000 C   0  0  0  0  0  0  0  0  0  0  0  0
  -13.0388  -10.5845    0.0000 C   0  0  0  0  0  0  0  0  0  0  0  0
  -13.2993  -12.0617    0.0000 C   0  0  0  0  0  0  0  0  0  0  0  0
    0.2752  -16.1660    0.0000 C   0  0  0  0  0  0  0  0  0  0  0  0
    0.5356  -17.6432    0.0000 P   0  0  0  0  0  0  0  0  0  0  0  0
   -0.9644  -17.6432    0.0000 O   0  0  0  0  0  0  0  0  0  0  0  0
    1.9452  -17.1301    0.0000 O   0  0  0  0  0  0  0  0  0  0  0  0
    3.0943  -18.0943    0.0000 C   0  0  0  0  0  0  0  0  0  0  0  0
    4.5038  -17.5813    0.0000 C   0  0  0  0  0  0  0  0  0  0  0  0
    5.6529  -18.5455    0.0000 C   0  0  0  0  0  0  0  0  0  0  0  0
    5.3924  -20.0227    0.0000 C   0  0  0  0  0  0  0  0  0  0  0  0
    3.9828  -20.5357    0.0000 C   0  0  0  0  0  0  0  0  0  0  0  0
    2.8338  -19.5715    0.0000 C   0  0  0  0  0  0  0  0  0  0  0  0
    1.4242  -20.0846    0.0000 C   0  0  0  0  0  0  0  0  0  0  0  0
    1.1638  -21.5618    0.0000 C   0  0  0  0  0  0  0  0  0  0  0  0
   -0.2458  -22.0748    0.0000 C   0  0  0  0  0  0  0  0  0  0  0  0
   -1.3948  -21.1106    0.0000 C   0  0  0  0  0  0  0  0  0  0  0  0
   -1.1344  -19.6334    0.0000 C   0  0  0  0  0  0  0  0  0  0  0  0
    0.2752  -19.1204    0.0000 C   0  0  0  0  0  0  0  0  0  0  0  0
    7.1696  -10.3809    0.0000 C   0  0  0  0  0  0  0  0  0  0  0  0
    7.4300  -11.8581    0.0000 P   0  0  0  0  0  0  0  0  0  0  0  0
    5.9300  -11.8581    0.0000 O   0  0  0  0  0  0  0  0  0  0  0  0
    8.8396  -11.3451    0.0000 O   0  0  0  0  0  0  0  0  0  0  0  0
    9.9887  -12.3092    0.0000 C   0  0  0  0  0  0  0  0  0  0  0  0
   11.3982  -11.7962    0.0000 C   0  0  0  0  0  0  0  0  0  0  0  0
   12.5473  -12.7604    0.0000 C   0  0  0  0  0  0  0  0  0  0  0  0
   12.2868  -14.2376    0.0000 C   0  0  0  0  0  0  0  0  0  0  0  0
   10.8772  -14.7506    0.0000 C   0  0  0  0  0  0  0  0  0  0  0  0
    9.7282  -13.7864    0.0000 C   0  0  0  0  0  0  0  0  0  0  0  0
    8.3186  -14.2995    0.0000 C   0  0  0  0  0  0  0  0  0  0  0  0
    8.0582  -15.7767    0.0000 C   0  0  0  0  0  0  0  0  0  0  0  0
    6.6486  -16.2897    0.0000 C   0  0  0  0  0  0  0  0  0  0  0  0
    5.4996  -15.3255    0.0000 C   0  0  0  0  0  0  0  0  0  0  0  0
    5.7600  -13.8483    0.0000 C   0  0  0  0  0  0  0  0  0  0  0  0
    7.1696  -13.3353    0.0000 C   0  0  0  0  0  0  0  0  0  0  0  0
    8.9927   -5.3479    0.0000 O   0  0  0  0  0  0  0  0  0  0  0  0
    9.7875   -4.0759    0.0000 C   0  0  0  0  0  0  0  0  0  0  0  0
   10.8295   -2.9969    0.0000 C   0  0  0  0  0  0  0  0  0  0  0  0
   10.9696   -4.9994    0.0000 C   0  0  0  0  0  0  0  0  0  0  0  0
  1  2  1  0
  2  3  1  0
  2  4  1  0
  4  5  1  0
  5  6  1  0
  6  7  1  0
  7  8  1  0
  8  9  1  0
  9 10  1  0
 10 11  1  0
 11 12  1  0
 12 13  1  0
 13 14  1  0
 14 15  1  0
 15 16  1  0
 16 17  1  0
 17 18  1  0
 18 19  1  0
 19 20  1  0
 20 21  1  0
 21 22  1  0
 21 23  1  0
 17 24  1  0
 24 25  1  0
 25 26  2  0
 25 27  1  0
 27 28  1  0
 28 29  2  0
 29 30  1  0
 30 31  2  0
 31 32  1  0
 32 33  2  0
 33 34  1  0
 34 35  2  0
 35 36  1  0
 36 37  2  0
 37 38  1  0
 38 39  2  0
 13 40  1  0
 40 41  1  0
 41 42  1  0
 42 43  1  0
 43 44  1  0
 44 45  1  0
 45 46  1  0
 46 47  1  0
 47 48  1  0
 48 49  1  0
 49 50  1  0
 50 51  1  0
 51 52  1  0
 52 53  1  0
 53 54  1  0
 51 55  1  0
 55 56  1  0
 56 57  2  0
 56 58  1  0
 58 59  1  0
 59 60  2  0
 60 61  1  0
 61 62  2  0
 62 63  1  0
 63 64  2  0
 64 65  1  0
 65 66  2  0
 66 67  1  0
 67 68  2  0
 68 69  1  0
 69 70  2  0
 47 71  1  0
 71 72  1  0
 72 73  1  0
 73 74  1  0
 74 75  1  0
 75 76  1  0
 76 77  1  0
 77 78  1  0
 78 79  1  0
 78 80  1  0
 74 81  1  0
 81 82  1  0
 82 83  2  0
 82 84  1  0
 84 85  1  0
 85 86  2  0
 86 87  1  0
 87 88  2  0
 88 89  1  0
 89 90  2  0
 90 91  1  0
 91 92  2  0
 92 93  1  0
 93 94  2  0
 94 95  1  0
 95 96  2  0
 43 97  1  0
 97 98  1  0
 98 99  2  0
 98100  1  0
100101  1  0
101102  2  0
102103  1  0
103104  2  0
104105  1  0
105106  2  0
106107  1  0
107108  2  0
108109  1  0
109110  2  0
110111  1  0
111112  2  0
  9113  1  0
113114  1  0
114115  2  0
114116  1  0
116117  1  0
117118  2  0
118119  1  0
119120  2  0
120121  1  0
121122  2  0
122123  1  0
123124  2  0
124125  1  0
125126  2  0
126127  1  0
127128  2  0
  5129  1  0
129130  1  0
130131  1  0
130132  1  0
130  2  1  0
 39 25  1  0
 70 56  1  0
 96 82  1  0
112 98  1  0
128114  1  0
 33 28  1  0
 39 34  1  0
 64 59  1  0
 70 65  1  0
 90 85  1  0
 96 91  1  0
106101  1  0
112107  1  0
122117  1  0
128123  1  0
M  END
>  <Candidate_ID>  (395) 
CAND_R2_395

>  <Candidate_Name>  (395) 
BDHDP-boronic-pinacol-2

>  <Parent_Seed_ID>  (395) 
TRAIN_107

>  <Parent_Name>  (395) 
BDHDP

>  <Transformation_Code>  (395) 
boronic_pinacol

>  <Design_Family>  (395) 
P-N-B

>  <Preparation_Type>  (395) 
Additive

>  <Synthesis_Level>  (395) 
C

>  <Parent_Tanimoto_r3>  (395) 
0.797752808988764

>  <Max_Train_Tanimoto_r3>  (395) 
0.797752808988764

>  <Risk_Flags>  (395) 
high molecular weight; high DOPO count; exploratory only; excluded from formal screening

$$$$
CAND_R2_396 | BDHDP-boronic-pinacol-all
     RDKit          2D

144161  0  0  0  0  0  0  0  0999 V2000
    9.9614  -20.9264    0.0000 C   0  0  0  0  0  0  0  0  0  0  0  0
    8.4623  -20.8741    0.0000 C   0  0  0  0  0  0  0  0  0  0  0  0
    8.5669  -22.3704    0.0000 C   0  0  0  0  0  0  0  0  0  0  0  0
    8.6711  -19.3887    0.0000 O   0  0  0  0  0  0  0  0  0  0  0  0
    7.3229  -18.7311    0.0000 B   0  0  0  0  0  0  0  0  0  0  0  0
    7.0624  -17.2539    0.0000 O   0  0  0  0  0  0  0  0  0  0  0  0
    5.6529  -16.7409    0.0000 C   0  0  0  0  0  0  0  0  0  0  0  0
    5.3924  -15.2637    0.0000 C   0  0  0  0  0  0  0  0  0  0  0  0
    3.9828  -14.7506    0.0000 N   0  0  0  0  0  0  0  0  0  0  0  0
    3.7224  -13.2734    0.0000 C   0  0  0  0  0  0  0  0  0  0  0  0
    2.3128  -12.7604    0.0000 C   0  0  0  0  0  0  0  0  0  0  0  0
    2.0524  -11.2832    0.0000 O   0  0  0  0  0  0  0  0  0  0  0  0
    0.6428  -10.7701    0.0000 B   0  0  0  0  0  0  0  0  0  0  0  0
    0.3824   -9.2929    0.0000 O   0  0  0  0  0  0  0  0  0  0  0  0
    1.5314   -8.3287    0.0000 C   0  0  0  0  0  0  0  0  0  0  0  0
    1.2709   -6.8515    0.0000 C   0  0  0  0  0  0  0  0  0  0  0  0
    2.4200   -5.8874    0.0000 N   0  0  0  0  0  0  0  0  0  0  0  0
    3.8296   -6.4004    0.0000 C   0  0  0  0  0  0  0  0  0  0  0  0
    4.0900   -7.8776    0.0000 C   0  0  0  0  0  0  0  0  0  0  0  0
    5.4996   -8.3906    0.0000 O   0  0  0  0  0  0  0  0  0  0  0  0
    2.1595   -4.4101    0.0000 C   0  0  0  0  0  0  0  0  0  0  0  0
    0.7500   -3.8971    0.0000 P   0  0  0  0  0  0  0  0  0  0  0  0
    0.4895   -5.3743    0.0000 O   0  0  0  0  0  0  0  0  0  0  0  0
    1.5000   -2.5981    0.0000 O   0  0  0  0  0  0  0  0  0  0  0  0
    0.7500   -1.2990    0.0000 C   0  0  0  0  0  0  0  0  0  0  0  0
    1.5000    0.0000    0.0000 C   0  0  0  0  0  0  0  0  0  0  0  0
    0.7500    1.2990    0.0000 C   0  0  0  0  0  0  0  0  0  0  0  0
   -0.7500    1.2990    0.0000 C   0  0  0  0  0  0  0  0  0  0  0  0
   -1.5000    0.0000    0.0000 C   0  0  0  0  0  0  0  0  0  0  0  0
   -0.7500   -1.2990    0.0000 C   0  0  0  0  0  0  0  0  0  0  0  0
   -1.5000   -2.5981    0.0000 C   0  0  0  0  0  0  0  0  0  0  0  0
   -3.0000   -2.5981    0.0000 C   0  0  0  0  0  0  0  0  0  0  0  0
   -3.7500   -3.8971    0.0000 C   0  0  0  0  0  0  0  0  0  0  0  0
   -3.0000   -5.1962    0.0000 C   0  0  0  0  0  0  0  0  0  0  0  0
   -1.5000   -5.1962    0.0000 C   0  0  0  0  0  0  0  0  0  0  0  0
   -0.7500   -3.8971    0.0000 C   0  0  0  0  0  0  0  0  0  0  0  0
   -0.5062  -11.7343    0.0000 O   0  0  0  0  0  0  0  0  0  0  0  0
   -0.2458  -13.2115    0.0000 C   0  0  0  0  0  0  0  0  0  0  0  0
   -1.3948  -14.1757    0.0000 C   0  0  0  0  0  0  0  0  0  0  0  0
   -1.1344  -15.6529    0.0000 N   0  0  0  0  0  0  0  0  0  0  0  0
   -2.2834  -16.6171    0.0000 C   0  0  0  0  0  0  0  0  0  0  0  0
   -2.0230  -18.0943    0.0000 C   0  0  0  0  0  0  0  0  0  0  0  0
   -3.1720  -19.0585    0.0000 O   0  0  0  0  0  0  0  0  0  0  0  0
   -2.9116  -20.5357    0.0000 B   0  0  0  0  0  0  0  0  0  0  0  0
   -4.0606  -21.4999    0.0000 O   0  0  0  0  0  0  0  0  0  0  0  0
   -5.4702  -20.9869    0.0000 C   0  0  0  0  0  0  0  0  0  0  0  0
   -6.6192  -21.9510    0.0000 C   0  0  0  0  0  0  0  0  0  0  0  0
   -8.0288  -21.4380    0.0000 N   0  0  0  0  0  0  0  0  0  0  0  0
   -9.1778  -22.4022    0.0000 C   0  0  0  0  0  0  0  0  0  0  0  0
   -8.9174  -23.8794    0.0000 C   0  0  0  0  0  0  0  0  0  0  0  0
  -10.0664  -24.8436    0.0000 O   0  0  0  0  0  0  0  0  0  0  0  0
   -9.8060  -26.3208    0.0000 B   0  0  0  0  0  0  0  0  0  0  0  0
   -8.4578  -26.9784    0.0000 O   0  0  0  0  0  0  0  0  0  0  0  0
   -8.6665  -28.4638    0.0000 C   0  0  0  0  0  0  0  0  0  0  0  0
   -7.1674  -28.5161    0.0000 C   0  0  0  0  0  0  0  0  0  0  0  0
   -8.5619  -29.9601    0.0000 C   0  0  0  0  0  0  0  0  0  0  0  0
  -10.1437  -28.7242    0.0000 C   0  0  0  0  0  0  0  0  0  0  0  0
   -9.7303  -30.1661    0.0000 C   0  0  0  0  0  0  0  0  0  0  0  0
  -11.5345  -29.2861    0.0000 C   0  0  0  0  0  0  0  0  0  0  0  0
  -10.8479  -27.3998    0.0000 O   0  0  0  0  0  0  0  0  0  0  0  0
   -8.2892  -19.9608    0.0000 C   0  0  0  0  0  0  0  0  0  0  0  0
   -9.6988  -19.4478    0.0000 P   0  0  0  0  0  0  0  0  0  0  0  0
   -9.9592  -20.9250    0.0000 O   0  0  0  0  0  0  0  0  0  0  0  0
   -8.9488  -18.1487    0.0000 O   0  0  0  0  0  0  0  0  0  0  0  0
   -9.6988  -16.8497    0.0000 C   0  0  0  0  0  0  0  0  0  0  0  0
   -8.9488  -15.5507    0.0000 C   0  0  0  0  0  0  0  0  0  0  0  0
   -9.6988  -14.2516    0.0000 C   0  0  0  0  0  0  0  0  0  0  0  0
  -11.1988  -14.2516    0.0000 C   0  0  0  0  0  0  0  0  0  0  0  0
  -11.9488  -15.5507    0.0000 C   0  0  0  0  0  0  0  0  0  0  0  0
  -11.1988  -16.8497    0.0000 C   0  0  0  0  0  0  0  0  0  0  0  0
  -11.9488  -18.1487    0.0000 C   0  0  0  0  0  0  0  0  0  0  0  0
  -13.4488  -18.1487    0.0000 C   0  0  0  0  0  0  0  0  0  0  0  0
  -14.1988  -19.4478    0.0000 C   0  0  0  0  0  0  0  0  0  0  0  0
  -13.4488  -20.7468    0.0000 C   0  0  0  0  0  0  0  0  0  0  0  0
  -11.9488  -20.7468    0.0000 C   0  0  0  0  0  0  0  0  0  0  0  0
  -11.1988  -19.4478    0.0000 C   0  0  0  0  0  0  0  0  0  0  0  0
   -1.5020  -21.0487    0.0000 O   0  0  0  0  0  0  0  0  0  0  0  0
   -1.2415  -22.5260    0.0000 C   0  0  0  0  0  0  0  0  0  0  0  0
    0.1680  -23.0390    0.0000 C   0  0  0  0  0  0  0  0  0  0  0  0
    0.4285  -24.5162    0.0000 N   0  0  0  0  0  0  0  0  0  0  0  0
    1.8380  -25.0292    0.0000 C   0  0  0  0  0  0  0  0  0  0  0  0
    2.0985  -26.5064    0.0000 C   0  0  0  0  0  0  0  0  0  0  0  0
    3.5080  -27.0195    0.0000 O   0  0  0  0  0  0  0  0  0  0  0  0
    3.7685  -28.4967    0.0000 B   0  0  0  0  0  0  0  0  0  0  0  0
    5.1167  -29.1542    0.0000 O   0  0  0  0  0  0  0  0  0  0  0  0
    4.9079  -30.6396    0.0000 C   0  0  0  0  0  0  0  0  0  0  0  0
    6.4070  -30.6920    0.0000 C   0  0  0  0  0  0  0  0  0  0  0  0
    5.0126  -32.1360    0.0000 C   0  0  0  0  0  0  0  0  0  0  0  0
    3.4307  -30.9001    0.0000 C   0  0  0  0  0  0  0  0  0  0  0  0
    3.8442  -32.3420    0.0000 C   0  0  0  0  0  0  0  0  0  0  0  0
    2.0399  -31.4620    0.0000 C   0  0  0  0  0  0  0  0  0  0  0  0
    2.7265  -29.5757    0.0000 O   0  0  0  0  0  0  0  0  0  0  0  0
   -0.7206  -25.4804    0.0000 C   0  0  0  0  0  0  0  0  0  0  0  0
   -2.1301  -24.9673    0.0000 P   0  0  0  0  0  0  0  0  0  0  0  0
   -1.3801  -23.6683    0.0000 O   0  0  0  0  0  0  0  0  0  0  0  0
   -2.3906  -26.4446    0.0000 O   0  0  0  0  0  0  0  0  0  0  0  0
   -3.8001  -26.9576    0.0000 C   0  0  0  0  0  0  0  0  0  0  0  0
   -4.0606  -28.4348    0.0000 C   0  0  0  0  0  0  0  0  0  0  0  0
   -5.4702  -28.9478    0.0000 C   0  0  0  0  0  0  0  0  0  0  0  0
   -6.6192  -27.9837    0.0000 C   0  0  0  0  0  0  0  0  0  0  0  0
   -6.3588  -26.5064    0.0000 C   0  0  0  0  0  0  0  0  0  0  0  0
   -4.9492  -25.9934    0.0000 C   0  0  0  0  0  0  0  0  0  0  0  0
   -4.6887  -24.5162    0.0000 C   0  0  0  0  0  0  0  0  0  0  0  0
   -5.8378  -23.5520    0.0000 C   0  0  0  0  0  0  0  0  0  0  0  0
   -5.5773  -22.0748    0.0000 C   0  0  0  0  0  0  0  0  0  0  0  0
   -4.1678  -21.5618    0.0000 C   0  0  0  0  0  0  0  0  0  0  0  0
   -3.0187  -22.5260    0.0000 C   0  0  0  0  0  0  0  0  0  0  0  0
   -3.2792  -24.0032    0.0000 C   0  0  0  0  0  0  0  0  0  0  0  0
    0.2752  -16.1660    0.0000 C   0  0  0  0  0  0  0  0  0  0  0  0
    0.5356  -17.6432    0.0000 P   0  0  0  0  0  0  0  0  0  0  0  0
    1.8721  -16.9621    0.0000 O   0  0  0  0  0  0  0  0  0  0  0  0
   -0.9644  -17.6432    0.0000 O   0  0  0  0  0  0  0  0  0  0  0  0
   -1.7144  -18.9422    0.0000 C   0  0  0  0  0  0  0  0  0  0  0  0
   -3.2144  -18.9422    0.0000 C   0  0  0  0  0  0  0  0  0  0  0  0
   -3.9644  -20.2412    0.0000 C   0  0  0  0  0  0  0  0  0  0  0  0
   -3.2144  -21.5403    0.0000 C   0  0  0  0  0  0  0  0  0  0  0  0
   -1.7144  -21.5403    0.0000 C   0  0  0  0  0  0  0  0  0  0  0  0
   -0.9644  -20.2412    0.0000 C   0  0  0  0  0  0  0  0  0  0  0  0
    0.5356  -20.2412    0.0000 C   0  0  0  0  0  0  0  0  0  0  0  0
    1.2856  -21.5403    0.0000 C   0  0  0  0  0  0  0  0  0  0  0  0
    2.7856  -21.5403    0.0000 C   0  0  0  0  0  0  0  0  0  0  0  0
    3.5356  -20.2412    0.0000 C   0  0  0  0  0  0  0  0  0  0  0  0
    2.7856  -18.9422    0.0000 C   0  0  0  0  0  0  0  0  0  0  0  0
    1.2856  -18.9422    0.0000 C   0  0  0  0  0  0  0  0  0  0  0  0
    2.8338  -15.7148    0.0000 C   0  0  0  0  0  0  0  0  0  0  0  0
    3.0943  -17.1920    0.0000 P   0  0  0  0  0  0  0  0  0  0  0  0
    1.6054  -17.0092    0.0000 O   0  0  0  0  0  0  0  0  0  0  0  0
    4.5038  -16.6790    0.0000 O   0  0  0  0  0  0  0  0  0  0  0  0
    5.6529  -17.6432    0.0000 C   0  0  0  0  0  0  0  0  0  0  0  0
    7.0624  -17.1301    0.0000 C   0  0  0  0  0  0  0  0  0  0  0  0
    8.2115  -18.0943    0.0000 C   0  0  0  0  0  0  0  0  0  0  0  0
    7.9510  -19.5715    0.0000 C   0  0  0  0  0  0  0  0  0  0  0  0
    6.5415  -20.0846    0.0000 C   0  0  0  0  0  0  0  0  0  0  0  0
    5.3924  -19.1204    0.0000 C   0  0  0  0  0  0  0  0  0  0  0  0
    3.9828  -19.6334    0.0000 C   0  0  0  0  0  0  0  0  0  0  0  0
    3.7224  -21.1106    0.0000 C   0  0  0  0  0  0  0  0  0  0  0  0
    2.3128  -21.6237    0.0000 C   0  0  0  0  0  0  0  0  0  0  0  0
    1.1638  -20.6595    0.0000 C   0  0  0  0  0  0  0  0  0  0  0  0
    1.4242  -19.1823    0.0000 C   0  0  0  0  0  0  0  0  0  0  0  0
    2.8338  -18.6692    0.0000 C   0  0  0  0  0  0  0  0  0  0  0  0
    6.2809  -19.8101    0.0000 O   0  0  0  0  0  0  0  0  0  0  0  0
    6.9851  -21.1345    0.0000 C   0  0  0  0  0  0  0  0  0  0  0  0
    7.3985  -22.5764    0.0000 C   0  0  0  0  0  0  0  0  0  0  0  0
    5.5943  -21.6965    0.0000 C   0  0  0  0  0  0  0  0  0  0  0  0
  1  2  1  0
  2  3  1  0
  2  4  1  0
  4  5  1  0
  5  6  1  0
  6  7  1  0
  7  8  1  0
  8  9  1  0
  9 10  1  0
 10 11  1  0
 11 12  1  0
 12 13  1  0
 13 14  1  0
 14 15  1  0
 15 16  1  0
 16 17  1  0
 17 18  1  0
 18 19  1  0
 19 20  1  0
 17 21  1  0
 21 22  1  0
 22 23  2  0
 22 24  1  0
 24 25  1  0
 25 26  2  0
 26 27  1  0
 27 28  2  0
 28 29  1  0
 29 30  2  0
 30 31  1  0
 31 32  2  0
 32 33  1  0
 33 34  2  0
 34 35  1  0
 35 36  2  0
 13 37  1  0
 37 38  1  0
 38 39  1  0
 39 40  1  0
 40 41  1  0
 41 42  1  0
 42 43  1  0
 43 44  1  0
 44 45  1  0
 45 46  1  0
 46 47  1  0
 47 48  1  0
 48 49  1  0
 49 50  1  0
 50 51  1  0
 51 52  1  0
 52 53  1  0
 53 54  1  0
 54 55  1  0
 54 56  1  0
 54 57  1  0
 57 58  1  0
 57 59  1  0
 57 60  1  0
 48 61  1  0
 61 62  1  0
 62 63  2  0
 62 64  1  0
 64 65  1  0
 65 66  2  0
 66 67  1  0
 67 68  2  0
 68 69  1  0
 69 70  2  0
 70 71  1  0
 71 72  2  0
 72 73  1  0
 73 74  2  0
 74 75  1  0
 75 76  2  0
 44 77  1  0
 77 78  1  0
 78 79  1  0
 79 80  1  0
 80 81  1  0
 81 82  1  0
 82 83  1  0
 83 84  1  0
 84 85  1  0
 85 86  1  0
 86 87  1  0
 86 88  1  0
 86 89  1  0
 89 90  1  0
 89 91  1  0
 89 92  1  0
 80 93  1  0
 93 94  1  0
 94 95  2  0
 94 96  1  0
 96 97  1  0
 97 98  2  0
 98 99  1  0
 99100  2  0
100101  1  0
101102  2  0
102103  1  0
103104  2  0
104105  1  0
105106  2  0
106107  1  0
107108  2  0
 40109  1  0
109110  1  0
110111  2  0
110112  1  0
112113  1  0
113114  2  0
114115  1  0
115116  2  0
116117  1  0
117118  2  0
118119  1  0
119120  2  0
120121  1  0
121122  2  0
122123  1  0
123124  2  0
  9125  1  0
125126  1  0
126127  2  0
126128  1  0
128129  1  0
129130  2  0
130131  1  0
131132  2  0
132133  1  0
133134  2  0
134135  1  0
135136  2  0
136137  1  0
137138  2  0
138139  1  0
139140  2  0
  5141  1  0
141142  1  0
142143  1  0
142144  1  0
142  2  1  0
 36 22  1  0
 60 52  1  0
 76 62  1  0
 92 84  1  0
108 94  1  0
124110  1  0
140126  1  0
 30 25  1  0
 36 31  1  0
 70 65  1  0
 76 71  1  0
102 97  1  0
108103  1  0
118113  1  0
124119  1  0
134129  1  0
140135  1  0
M  END
>  <Candidate_ID>  (396) 
CAND_R2_396

>  <Candidate_Name>  (396) 
BDHDP-boronic-pinacol-all

>  <Parent_Seed_ID>  (396) 
TRAIN_107

>  <Parent_Name>  (396) 
BDHDP

>  <Transformation_Code>  (396) 
boronic_pinacol_all

>  <Design_Family>  (396) 
P-N-B

>  <Preparation_Type>  (396) 
Additive

>  <Synthesis_Level>  (396) 
C

>  <Parent_Tanimoto_r3>  (396) 
0.7303370786516854

>  <Max_Train_Tanimoto_r3>  (396) 
0.7303370786516854

>  <Risk_Flags>  (396) 
high molecular weight; high DOPO count; exploratory only; excluded from formal screening

$$$$
CAND_R2_397 | BDHDP-boronic-catechol
     RDKit          2D

132148  0  0  0  0  0  0  0  0999 V2000
   12.5158   -7.8232    0.0000 O   0  0  0  0  0  0  0  0  0  0  0  0
   11.7658   -6.5241    0.0000 P   0  0  0  0  0  0  0  0  0  0  0  0
   10.6168   -7.4883    0.0000 C   0  0  0  0  0  0  0  0  0  0  0  0
   10.8772   -8.9655    0.0000 N   0  0  0  0  0  0  0  0  0  0  0  0
   12.2868   -9.4786    0.0000 C   0  0  0  0  0  0  0  0  0  0  0  0
   13.4359   -8.5144    0.0000 C   0  0  0  0  0  0  0  0  0  0  0  0
   14.8454   -9.0274    0.0000 O   0  0  0  0  0  0  0  0  0  0  0  0
    9.7282   -9.9297    0.0000 C   0  0  0  0  0  0  0  0  0  0  0  0
    9.9887  -11.4069    0.0000 C   0  0  0  0  0  0  0  0  0  0  0  0
    8.8396  -12.3711    0.0000 O   0  0  0  0  0  0  0  0  0  0  0  0
    9.1001  -13.8483    0.0000 B   0  0  0  0  0  0  0  0  0  0  0  0
    7.9510  -14.8125    0.0000 O   0  0  0  0  0  0  0  0  0  0  0  0
    6.5415  -14.2995    0.0000 C   0  0  0  0  0  0  0  0  0  0  0  0
    5.3924  -15.2637    0.0000 C   0  0  0  0  0  0  0  0  0  0  0  0
    3.9828  -14.7506    0.0000 N   0  0  0  0  0  0  0  0  0  0  0  0
    3.7224  -13.2734    0.0000 C   0  0  0  0  0  0  0  0  0  0  0  0
    2.3128  -12.7604    0.0000 C   0  0  0  0  0  0  0  0  0  0  0  0
    1.1638  -13.7246    0.0000 O   0  0  0  0  0  0  0  0  0  0  0  0
   -0.2458  -13.2115    0.0000 B   0  0  0  0  0  0  0  0  0  0  0  0
   -1.3948  -14.1757    0.0000 O   0  0  0  0  0  0  0  0  0  0  0  0
   -2.8044  -13.6627    0.0000 C   0  0  0  0  0  0  0  0  0  0  0  0
   -3.9534  -14.6269    0.0000 C   0  0  0  0  0  0  0  0  0  0  0  0
   -5.3630  -14.1138    0.0000 N   0  0  0  0  0  0  0  0  0  0  0  0
   -5.6235  -12.6366    0.0000 C   0  0  0  0  0  0  0  0  0  0  0  0
   -4.4744  -11.6724    0.0000 C   0  0  0  0  0  0  0  0  0  0  0  0
   -4.7349  -10.1952    0.0000 O   0  0  0  0  0  0  0  0  0  0  0  0
   -3.5858   -9.2311    0.0000 B   0  0  0  0  0  0  0  0  0  0  0  0
   -3.8463   -7.7538    0.0000 O   0  0  0  0  0  0  0  0  0  0  0  0
   -2.1763   -9.7441    0.0000 O   0  0  0  0  0  0  0  0  0  0  0  0
   -6.5120  -15.0780    0.0000 C   0  0  0  0  0  0  0  0  0  0  0  0
   -6.2516  -16.5552    0.0000 P   0  0  0  0  0  0  0  0  0  0  0  0
   -4.8420  -16.0422    0.0000 O   0  0  0  0  0  0  0  0  0  0  0  0
   -7.7516  -16.5552    0.0000 O   0  0  0  0  0  0  0  0  0  0  0  0
   -8.5016  -17.8543    0.0000 C   0  0  0  0  0  0  0  0  0  0  0  0
  -10.0016  -17.8543    0.0000 C   0  0  0  0  0  0  0  0  0  0  0  0
  -10.7516  -19.1533    0.0000 C   0  0  0  0  0  0  0  0  0  0  0  0
  -10.0016  -20.4523    0.0000 C   0  0  0  0  0  0  0  0  0  0  0  0
   -8.5016  -20.4523    0.0000 C   0  0  0  0  0  0  0  0  0  0  0  0
   -7.7516  -19.1533    0.0000 C   0  0  0  0  0  0  0  0  0  0  0  0
   -6.2516  -19.1533    0.0000 C   0  0  0  0  0  0  0  0  0  0  0  0
   -5.5016  -20.4523    0.0000 C   0  0  0  0  0  0  0  0  0  0  0  0
   -4.0016  -20.4523    0.0000 C   0  0  0  0  0  0  0  0  0  0  0  0
   -3.2516  -19.1533    0.0000 C   0  0  0  0  0  0  0  0  0  0  0  0
   -4.0016  -17.8543    0.0000 C   0  0  0  0  0  0  0  0  0  0  0  0
   -5.5016  -17.8543    0.0000 C   0  0  0  0  0  0  0  0  0  0  0  0
   -0.5062  -11.7343    0.0000 O   0  0  0  0  0  0  0  0  0  0  0  0
    0.6428  -10.7701    0.0000 C   0  0  0  0  0  0  0  0  0  0  0  0
    0.3824   -9.2929    0.0000 C   0  0  0  0  0  0  0  0  0  0  0  0
    1.5314   -8.3287    0.0000 N   0  0  0  0  0  0  0  0  0  0  0  0
    1.2709   -6.8515    0.0000 C   0  0  0  0  0  0  0  0  0  0  0  0
   -0.1386   -6.3385    0.0000 C   0  0  0  0  0  0  0  0  0  0  0  0
   -0.3991   -4.8613    0.0000 O   0  0  0  0  0  0  0  0  0  0  0  0
   -1.8086   -4.3483    0.0000 B   0  0  0  0  0  0  0  0  0  0  0  0
   -2.0691   -2.8711    0.0000 O   0  0  0  0  0  0  0  0  0  0  0  0
   -2.9577   -5.3124    0.0000 O   0  0  0  0  0  0  0  0  0  0  0  0
    2.9410   -8.8418    0.0000 C   0  0  0  0  0  0  0  0  0  0  0  0
    4.0900   -7.8776    0.0000 P   0  0  0  0  0  0  0  0  0  0  0  0
    2.9410   -6.9134    0.0000 O   0  0  0  0  0  0  0  0  0  0  0  0
    4.8400   -9.1766    0.0000 O   0  0  0  0  0  0  0  0  0  0  0  0
    6.3400   -9.1766    0.0000 C   0  0  0  0  0  0  0  0  0  0  0  0
    7.0900  -10.4757    0.0000 C   0  0  0  0  0  0  0  0  0  0  0  0
    8.5900  -10.4757    0.0000 C   0  0  0  0  0  0  0  0  0  0  0  0
    9.3400   -9.1766    0.0000 C   0  0  0  0  0  0  0  0  0  0  0  0
    8.5900   -7.8776    0.0000 C   0  0  0  0  0  0  0  0  0  0  0  0
    7.0900   -7.8776    0.0000 C   0  0  0  0  0  0  0  0  0  0  0  0
    6.3400   -6.5786    0.0000 C   0  0  0  0  0  0  0  0  0  0  0  0
    7.0900   -5.2795    0.0000 C   0  0  0  0  0  0  0  0  0  0  0  0
    6.3400   -3.9805    0.0000 C   0  0  0  0  0  0  0  0  0  0  0  0
    4.8400   -3.9805    0.0000 C   0  0  0  0  0  0  0  0  0  0  0  0
    4.0900   -5.2795    0.0000 C   0  0  0  0  0  0  0  0  0  0  0  0
    4.8400   -6.5786    0.0000 C   0  0  0  0  0  0  0  0  0  0  0  0
    2.8338  -15.7148    0.0000 C   0  0  0  0  0  0  0  0  0  0  0  0
    3.0943  -17.1920    0.0000 P   0  0  0  0  0  0  0  0  0  0  0  0
    4.5038  -16.6790    0.0000 O   0  0  0  0  0  0  0  0  0  0  0  0
    1.5943  -17.1920    0.0000 O   0  0  0  0  0  0  0  0  0  0  0  0
    0.8443  -18.4911    0.0000 C   0  0  0  0  0  0  0  0  0  0  0  0
   -0.6557  -18.4911    0.0000 C   0  0  0  0  0  0  0  0  0  0  0  0
   -1.4057  -19.7901    0.0000 C   0  0  0  0  0  0  0  0  0  0  0  0
   -0.6557  -21.0891    0.0000 C   0  0  0  0  0  0  0  0  0  0  0  0
    0.8443  -21.0891    0.0000 C   0  0  0  0  0  0  0  0  0  0  0  0
    1.5943  -19.7901    0.0000 C   0  0  0  0  0  0  0  0  0  0  0  0
    3.0943  -19.7901    0.0000 C   0  0  0  0  0  0  0  0  0  0  0  0
    3.8443  -21.0891    0.0000 C   0  0  0  0  0  0  0  0  0  0  0  0
    5.3443  -21.0891    0.0000 C   0  0  0  0  0  0  0  0  0  0  0  0
    6.0943  -19.7901    0.0000 C   0  0  0  0  0  0  0  0  0  0  0  0
    5.3443  -18.4911    0.0000 C   0  0  0  0  0  0  0  0  0  0  0  0
    3.8443  -18.4911    0.0000 C   0  0  0  0  0  0  0  0  0  0  0  0
   10.5096  -14.3614    0.0000 O   0  0  0  0  0  0  0  0  0  0  0  0
   11.6587  -13.3972    0.0000 C   0  0  0  0  0  0  0  0  0  0  0  0
   13.0682  -13.9102    0.0000 C   0  0  0  0  0  0  0  0  0  0  0  0
   14.2173  -12.9460    0.0000 N   0  0  0  0  0  0  0  0  0  0  0  0
   13.9568  -11.4688    0.0000 C   0  0  0  0  0  0  0  0  0  0  0  0
   15.1059  -10.5046    0.0000 C   0  0  0  0  0  0  0  0  0  0  0  0
   16.5154  -11.0177    0.0000 O   0  0  0  0  0  0  0  0  0  0  0  0
   17.6645  -10.0535    0.0000 B   0  0  0  0  0  0  0  0  0  0  0  0
   19.1199  -10.4164    0.0000 O   0  0  0  0  0  0  0  0  0  0  0  0
   19.9148   -9.1443    0.0000 C   0  0  0  0  0  0  0  0  0  0  0  0
   21.3920   -8.8838    0.0000 C   0  0  0  0  0  0  0  0  0  0  0  0
   21.9050   -7.4743    0.0000 C   0  0  0  0  0  0  0  0  0  0  0  0
   20.9409   -6.3252    0.0000 C   0  0  0  0  0  0  0  0  0  0  0  0
   19.4636   -6.5857    0.0000 C   0  0  0  0  0  0  0  0  0  0  0  0
   18.9506   -7.9952    0.0000 C   0  0  0  0  0  0  0  0  0  0  0  0
   17.5598   -8.5571    0.0000 O   0  0  0  0  0  0  0  0  0  0  0  0
   15.6268  -13.4591    0.0000 C   0  0  0  0  0  0  0  0  0  0  0  0
   15.8873  -14.9363    0.0000 P   0  0  0  0  0  0  0  0  0  0  0  0
   14.3873  -14.9363    0.0000 O   0  0  0  0  0  0  0  0  0  0  0  0
   17.2968  -14.4232    0.0000 O   0  0  0  0  0  0  0  0  0  0  0  0
   18.4459  -15.3874    0.0000 C   0  0  0  0  0  0  0  0  0  0  0  0
   19.8554  -14.8744    0.0000 C   0  0  0  0  0  0  0  0  0  0  0  0
   21.0045  -15.8386    0.0000 C   0  0  0  0  0  0  0  0  0  0  0  0
   20.7440  -17.3158    0.0000 C   0  0  0  0  0  0  0  0  0  0  0  0
   19.3345  -17.8288    0.0000 C   0  0  0  0  0  0  0  0  0  0  0  0
   18.1854  -16.8646    0.0000 C   0  0  0  0  0  0  0  0  0  0  0  0
   16.7759  -17.3777    0.0000 C   0  0  0  0  0  0  0  0  0  0  0  0
   16.5154  -18.8549    0.0000 C   0  0  0  0  0  0  0  0  0  0  0  0
   15.1059  -19.3679    0.0000 C   0  0  0  0  0  0  0  0  0  0  0  0
   13.9568  -18.4037    0.0000 C   0  0  0  0  0  0  0  0  0  0  0  0
   14.2173  -16.9265    0.0000 C   0  0  0  0  0  0  0  0  0  0  0  0
   15.6268  -16.4135    0.0000 C   0  0  0  0  0  0  0  0  0  0  0  0
   10.6168   -5.5600    0.0000 O   0  0  0  0  0  0  0  0  0  0  0  0
   10.8772   -4.0828    0.0000 C   0  0  0  0  0  0  0  0  0  0  0  0
    9.7282   -3.1186    0.0000 C   0  0  0  0  0  0  0  0  0  0  0  0
    9.9887   -1.6414    0.0000 C   0  0  0  0  0  0  0  0  0  0  0  0
   11.3982   -1.1283    0.0000 C   0  0  0  0  0  0  0  0  0  0  0  0
   12.5473   -2.0925    0.0000 C   0  0  0  0  0  0  0  0  0  0  0  0
   12.2868   -3.5697    0.0000 C   0  0  0  0  0  0  0  0  0  0  0  0
   13.4359   -4.5339    0.0000 C   0  0  0  0  0  0  0  0  0  0  0  0
   14.8454   -4.0209    0.0000 C   0  0  0  0  0  0  0  0  0  0  0  0
   15.9945   -4.9851    0.0000 C   0  0  0  0  0  0  0  0  0  0  0  0
   15.7340   -6.4623    0.0000 C   0  0  0  0  0  0  0  0  0  0  0  0
   14.3244   -6.9753    0.0000 C   0  0  0  0  0  0  0  0  0  0  0  0
   13.1754   -6.0111    0.0000 C   0  0  0  0  0  0  0  0  0  0  0  0
  1  2  2  0
  2  3  1  0
  3  4  1  0
  4  5  1  0
  5  6  1  0
  6  7  1  0
  4  8  1  0
  8  9  1  0
  9 10  1  0
 10 11  1  0
 11 12  1  0
 12 13  1  0
 13 14  1  0
 14 15  1  0
 15 16  1  0
 16 17  1  0
 17 18  1  0
 18 19  1  0
 19 20  1  0
 20 21  1  0
 21 22  1  0
 22 23  1  0
 23 24  1  0
 24 25  1  0
 25 26  1  0
 26 27  1  0
 27 28  1  0
 27 29  1  0
 23 30  1  0
 30 31  1  0
 31 32  2  0
 31 33  1  0
 33 34  1  0
 34 35  2  0
 35 36  1  0
 36 37  2  0
 37 38  1  0
 38 39  2  0
 39 40  1  0
 40 41  2  0
 41 42  1  0
 42 43  2  0
 43 44  1  0
 44 45  2  0
 19 46  1  0
 46 47  1  0
 47 48  1  0
 48 49  1  0
 49 50  1  0
 50 51  1  0
 51 52  1  0
 52 53  1  0
 53 54  1  0
 53 55  1  0
 49 56  1  0
 56 57  1  0
 57 58  2  0
 57 59  1  0
 59 60  1  0
 60 61  2  0
 61 62  1  0
 62 63  2  0
 63 64  1  0
 64 65  2  0
 65 66  1  0
 66 67  2  0
 67 68  1  0
 68 69  2  0
 69 70  1  0
 70 71  2  0
 15 72  1  0
 72 73  1  0
 73 74  2  0
 73 75  1  0
 75 76  1  0
 76 77  2  0
 77 78  1  0
 78 79  2  0
 79 80  1  0
 80 81  2  0
 81 82  1  0
 82 83  2  0
 83 84  1  0
 84 85  2  0
 85 86  1  0
 86 87  2  0
 11 88  1  0
 88 89  1  0
 89 90  1  0
 90 91  1  0
 91 92  1  0
 92 93  1  0
 93 94  1  0
 94 95  1  0
 95 96  1  0
 96 97  1  0
 97 98  2  0
 98 99  1  0
 99100  2  0
100101  1  0
101102  2  0
102103  1  0
 91104  1  0
104105  1  0
105106  2  0
105107  1  0
107108  1  0
108109  2  0
109110  1  0
110111  2  0
111112  1  0
112113  2  0
113114  1  0
114115  2  0
115116  1  0
116117  2  0
117118  1  0
118119  2  0
  2120  1  0
120121  1  0
121122  2  0
122123  1  0
123124  2  0
124125  1  0
125126  2  0
126127  1  0
127128  2  0
128129  1  0
129130  2  0
130131  1  0
131132  2  0
132  2  1  0
 45 31  1  0
 71 57  1  0
 87 73  1  0
103 95  1  0
119105  1  0
126121  1  0
132127  1  0
 39 34  1  0
 45 40  1  0
 65 60  1  0
 71 66  1  0
 81 76  1  0
 87 82  1  0
102 97  1  0
113108  1  0
119114  1  0
M  END
>  <Candidate_ID>  (397) 
CAND_R2_397

>  <Candidate_Name>  (397) 
BDHDP-boronic-catechol

>  <Parent_Seed_ID>  (397) 
TRAIN_107

>  <Parent_Name>  (397) 
BDHDP

>  <Transformation_Code>  (397) 
boronic_catechol

>  <Design_Family>  (397) 
P-N-B

>  <Preparation_Type>  (397) 
Additive

>  <Synthesis_Level>  (397) 
C

>  <Parent_Tanimoto_r3>  (397) 
0.8255813953488372

>  <Max_Train_Tanimoto_r3>  (397) 
0.8255813953488372

>  <Risk_Flags>  (397) 
high molecular weight; high DOPO count; exploratory only; excluded from formal screening

$$$$
CAND_R2_398 | BDHDP-boronic-catechol-2
     RDKit          2D

132148  0  0  0  0  0  0  0  0999 V2000
    4.8400   -9.1766    0.0000 O   0  0  0  0  0  0  0  0  0  0  0  0
    4.0900   -7.8776    0.0000 P   0  0  0  0  0  0  0  0  0  0  0  0
    2.9410   -8.8418    0.0000 C   0  0  0  0  0  0  0  0  0  0  0  0
    1.5314   -8.3287    0.0000 N   0  0  0  0  0  0  0  0  0  0  0  0
    1.2709   -6.8515    0.0000 C   0  0  0  0  0  0  0  0  0  0  0  0
    2.4200   -5.8874    0.0000 C   0  0  0  0  0  0  0  0  0  0  0  0
    1.8098   -4.5171    0.0000 O   0  0  0  0  0  0  0  0  0  0  0  0
    0.3824   -9.2929    0.0000 C   0  0  0  0  0  0  0  0  0  0  0  0
    0.6428  -10.7701    0.0000 C   0  0  0  0  0  0  0  0  0  0  0  0
   -0.5062  -11.7343    0.0000 O   0  0  0  0  0  0  0  0  0  0  0  0
   -0.2458  -13.2115    0.0000 B   0  0  0  0  0  0  0  0  0  0  0  0
   -1.3948  -14.1757    0.0000 O   0  0  0  0  0  0  0  0  0  0  0  0
   -2.8044  -13.6627    0.0000 C   0  0  0  0  0  0  0  0  0  0  0  0
   -3.9534  -14.6269    0.0000 C   0  0  0  0  0  0  0  0  0  0  0  0
   -5.3630  -14.1138    0.0000 N   0  0  0  0  0  0  0  0  0  0  0  0
   -5.6235  -12.6366    0.0000 C   0  0  0  0  0  0  0  0  0  0  0  0
   -4.4744  -11.6724    0.0000 C   0  0  0  0  0  0  0  0  0  0  0  0
   -4.7349  -10.1952    0.0000 O   0  0  0  0  0  0  0  0  0  0  0  0
   -3.5858   -9.2311    0.0000 B   0  0  0  0  0  0  0  0  0  0  0  0
   -3.8463   -7.7538    0.0000 O   0  0  0  0  0  0  0  0  0  0  0  0
   -2.1763   -9.7441    0.0000 O   0  0  0  0  0  0  0  0  0  0  0  0
   -6.5120  -15.0780    0.0000 C   0  0  0  0  0  0  0  0  0  0  0  0
   -6.2516  -16.5552    0.0000 P   0  0  0  0  0  0  0  0  0  0  0  0
   -4.8420  -16.0422    0.0000 O   0  0  0  0  0  0  0  0  0  0  0  0
   -7.7516  -16.5552    0.0000 O   0  0  0  0  0  0  0  0  0  0  0  0
   -8.5016  -17.8543    0.0000 C   0  0  0  0  0  0  0  0  0  0  0  0
  -10.0016  -17.8543    0.0000 C   0  0  0  0  0  0  0  0  0  0  0  0
  -10.7516  -19.1533    0.0000 C   0  0  0  0  0  0  0  0  0  0  0  0
  -10.0016  -20.4523    0.0000 C   0  0  0  0  0  0  0  0  0  0  0  0
   -8.5016  -20.4523    0.0000 C   0  0  0  0  0  0  0  0  0  0  0  0
   -7.7516  -19.1533    0.0000 C   0  0  0  0  0  0  0  0  0  0  0  0
   -6.2516  -19.1533    0.0000 C   0  0  0  0  0  0  0  0  0  0  0  0
   -5.5016  -20.4523    0.0000 C   0  0  0  0  0  0  0  0  0  0  0  0
   -4.0016  -20.4523    0.0000 C   0  0  0  0  0  0  0  0  0  0  0  0
   -3.2516  -19.1533    0.0000 C   0  0  0  0  0  0  0  0  0  0  0  0
   -4.0016  -17.8543    0.0000 C   0  0  0  0  0  0  0  0  0  0  0  0
   -5.5016  -17.8543    0.0000 C   0  0  0  0  0  0  0  0  0  0  0  0
    1.1638  -13.7246    0.0000 O   0  0  0  0  0  0  0  0  0  0  0  0
    2.3128  -12.7604    0.0000 C   0  0  0  0  0  0  0  0  0  0  0  0
    3.7224  -13.2734    0.0000 C   0  0  0  0  0  0  0  0  0  0  0  0
    3.9828  -14.7506    0.0000 N   0  0  0  0  0  0  0  0  0  0  0  0
    5.3924  -15.2637    0.0000 C   0  0  0  0  0  0  0  0  0  0  0  0
    5.6529  -16.7409    0.0000 C   0  0  0  0  0  0  0  0  0  0  0  0
    7.0624  -17.2539    0.0000 O   0  0  0  0  0  0  0  0  0  0  0  0
    7.3229  -18.7311    0.0000 B   0  0  0  0  0  0  0  0  0  0  0  0
    8.7324  -19.2441    0.0000 O   0  0  0  0  0  0  0  0  0  0  0  0
    9.8815  -18.2800    0.0000 C   0  0  0  0  0  0  0  0  0  0  0  0
   11.2910  -18.7930    0.0000 C   0  0  0  0  0  0  0  0  0  0  0  0
   12.4401  -17.8288    0.0000 N   0  0  0  0  0  0  0  0  0  0  0  0
   13.8496  -18.3418    0.0000 C   0  0  0  0  0  0  0  0  0  0  0  0
   14.1101  -19.8190    0.0000 C   0  0  0  0  0  0  0  0  0  0  0  0
   15.5196  -20.3321    0.0000 O   0  0  0  0  0  0  0  0  0  0  0  0
   15.7801  -21.8093    0.0000 B   0  0  0  0  0  0  0  0  0  0  0  0
   17.1896  -22.3223    0.0000 O   0  0  0  0  0  0  0  0  0  0  0  0
   14.6310  -22.7735    0.0000 O   0  0  0  0  0  0  0  0  0  0  0  0
   12.1796  -16.3516    0.0000 C   0  0  0  0  0  0  0  0  0  0  0  0
   13.3287  -15.3874    0.0000 P   0  0  0  0  0  0  0  0  0  0  0  0
   14.0787  -16.6865    0.0000 O   0  0  0  0  0  0  0  0  0  0  0  0
   12.1796  -14.4232    0.0000 O   0  0  0  0  0  0  0  0  0  0  0  0
   12.4401  -12.9460    0.0000 C   0  0  0  0  0  0  0  0  0  0  0  0
   11.2910  -11.9818    0.0000 C   0  0  0  0  0  0  0  0  0  0  0  0
   11.5515  -10.5046    0.0000 C   0  0  0  0  0  0  0  0  0  0  0  0
   12.9610   -9.9916    0.0000 C   0  0  0  0  0  0  0  0  0  0  0  0
   14.1101  -10.9558    0.0000 C   0  0  0  0  0  0  0  0  0  0  0  0
   13.8496  -12.4330    0.0000 C   0  0  0  0  0  0  0  0  0  0  0  0
   14.9987  -13.3972    0.0000 C   0  0  0  0  0  0  0  0  0  0  0  0
   16.4082  -12.8841    0.0000 C   0  0  0  0  0  0  0  0  0  0  0  0
   17.5573  -13.8483    0.0000 C   0  0  0  0  0  0  0  0  0  0  0  0
   17.2968  -15.3255    0.0000 C   0  0  0  0  0  0  0  0  0  0  0  0
   15.8873  -15.8386    0.0000 C   0  0  0  0  0  0  0  0  0  0  0  0
   14.7382  -14.8744    0.0000 C   0  0  0  0  0  0  0  0  0  0  0  0
    6.1738  -19.6953    0.0000 O   0  0  0  0  0  0  0  0  0  0  0  0
    6.4343  -21.1725    0.0000 C   0  0  0  0  0  0  0  0  0  0  0  0
    5.2852  -22.1367    0.0000 C   0  0  0  0  0  0  0  0  0  0  0  0
    5.5457  -23.6139    0.0000 N   0  0  0  0  0  0  0  0  0  0  0  0
    4.3966  -24.5781    0.0000 C   0  0  0  0  0  0  0  0  0  0  0  0
    2.9871  -24.0650    0.0000 C   0  0  0  0  0  0  0  0  0  0  0  0
    1.8380  -25.0292    0.0000 O   0  0  0  0  0  0  0  0  0  0  0  0
    0.4285  -24.5162    0.0000 B   0  0  0  0  0  0  0  0  0  0  0  0
   -0.8151  -25.3550    0.0000 O   0  0  0  0  0  0  0  0  0  0  0  0
   -1.9971  -24.4315    0.0000 C   0  0  0  0  0  0  0  0  0  0  0  0
   -3.4743  -24.6920    0.0000 C   0  0  0  0  0  0  0  0  0  0  0  0
   -4.4385  -23.5429    0.0000 C   0  0  0  0  0  0  0  0  0  0  0  0
   -3.9255  -22.1334    0.0000 C   0  0  0  0  0  0  0  0  0  0  0  0
   -2.4483  -21.8729    0.0000 C   0  0  0  0  0  0  0  0  0  0  0  0
   -1.4841  -23.0220    0.0000 C   0  0  0  0  0  0  0  0  0  0  0  0
    0.0150  -23.0743    0.0000 O   0  0  0  0  0  0  0  0  0  0  0  0
    6.9552  -24.1269    0.0000 C   0  0  0  0  0  0  0  0  0  0  0  0
    7.2157  -25.6041    0.0000 P   0  0  0  0  0  0  0  0  0  0  0  0
    5.7157  -25.6041    0.0000 O   0  0  0  0  0  0  0  0  0  0  0  0
    8.6252  -25.0911    0.0000 O   0  0  0  0  0  0  0  0  0  0  0  0
    9.7743  -26.0553    0.0000 C   0  0  0  0  0  0  0  0  0  0  0  0
   11.1838  -25.5423    0.0000 C   0  0  0  0  0  0  0  0  0  0  0  0
   12.3329  -26.5064    0.0000 C   0  0  0  0  0  0  0  0  0  0  0  0
   12.0724  -27.9837    0.0000 C   0  0  0  0  0  0  0  0  0  0  0  0
   10.6629  -28.4967    0.0000 C   0  0  0  0  0  0  0  0  0  0  0  0
    9.5138  -27.5325    0.0000 C   0  0  0  0  0  0  0  0  0  0  0  0
    8.1043  -28.0455    0.0000 C   0  0  0  0  0  0  0  0  0  0  0  0
    7.8438  -29.5227    0.0000 C   0  0  0  0  0  0  0  0  0  0  0  0
    6.4343  -30.0358    0.0000 C   0  0  0  0  0  0  0  0  0  0  0  0
    5.2852  -29.0716    0.0000 C   0  0  0  0  0  0  0  0  0  0  0  0
    5.5457  -27.5944    0.0000 C   0  0  0  0  0  0  0  0  0  0  0  0
    6.9552  -27.0813    0.0000 C   0  0  0  0  0  0  0  0  0  0  0  0
    2.8338  -15.7148    0.0000 C   0  0  0  0  0  0  0  0  0  0  0  0
    3.0943  -17.1920    0.0000 P   0  0  0  0  0  0  0  0  0  0  0  0
    4.5038  -16.6790    0.0000 O   0  0  0  0  0  0  0  0  0  0  0  0
    1.5943  -17.1920    0.0000 O   0  0  0  0  0  0  0  0  0  0  0  0
    0.8443  -18.4911    0.0000 C   0  0  0  0  0  0  0  0  0  0  0  0
   -0.6557  -18.4911    0.0000 C   0  0  0  0  0  0  0  0  0  0  0  0
   -1.4057  -19.7901    0.0000 C   0  0  0  0  0  0  0  0  0  0  0  0
   -0.6557  -21.0891    0.0000 C   0  0  0  0  0  0  0  0  0  0  0  0
    0.8443  -21.0891    0.0000 C   0  0  0  0  0  0  0  0  0  0  0  0
    1.5943  -19.7901    0.0000 C   0  0  0  0  0  0  0  0  0  0  0  0
    3.0943  -19.7901    0.0000 C   0  0  0  0  0  0  0  0  0  0  0  0
    3.8443  -21.0891    0.0000 C   0  0  0  0  0  0  0  0  0  0  0  0
    5.3443  -21.0891    0.0000 C   0  0  0  0  0  0  0  0  0  0  0  0
    6.0943  -19.7901    0.0000 C   0  0  0  0  0  0  0  0  0  0  0  0
    5.3443  -18.4911    0.0000 C   0  0  0  0  0  0  0  0  0  0  0  0
    3.8443  -18.4911    0.0000 C   0  0  0  0  0  0  0  0  0  0  0  0
    2.9410   -6.9134    0.0000 O   0  0  0  0  0  0  0  0  0  0  0  0
    3.2014   -5.4362    0.0000 C   0  0  0  0  0  0  0  0  0  0  0  0
    2.0524   -4.4720    0.0000 C   0  0  0  0  0  0  0  0  0  0  0  0
    2.3128   -2.9948    0.0000 C   0  0  0  0  0  0  0  0  0  0  0  0
    3.7224   -2.4818    0.0000 C   0  0  0  0  0  0  0  0  0  0  0  0
    4.8714   -3.4460    0.0000 C   0  0  0  0  0  0  0  0  0  0  0  0
    4.6110   -4.9232    0.0000 C   0  0  0  0  0  0  0  0  0  0  0  0
    5.7600   -5.8874    0.0000 C   0  0  0  0  0  0  0  0  0  0  0  0
    7.1696   -5.3743    0.0000 C   0  0  0  0  0  0  0  0  0  0  0  0
    8.3186   -6.3385    0.0000 C   0  0  0  0  0  0  0  0  0  0  0  0
    8.0582   -7.8157    0.0000 C   0  0  0  0  0  0  0  0  0  0  0  0
    6.6486   -8.3287    0.0000 C   0  0  0  0  0  0  0  0  0  0  0  0
    5.4996   -7.3646    0.0000 C   0  0  0  0  0  0  0  0  0  0  0  0
  1  2  2  0
  2  3  1  0
  3  4  1  0
  4  5  1  0
  5  6  1  0
  6  7  1  0
  4  8  1  0
  8  9  1  0
  9 10  1  0
 10 11  1  0
 11 12  1  0
 12 13  1  0
 13 14  1  0
 14 15  1  0
 15 16  1  0
 16 17  1  0
 17 18  1  0
 18 19  1  0
 19 20  1  0
 19 21  1  0
 15 22  1  0
 22 23  1  0
 23 24  2  0
 23 25  1  0
 25 26  1  0
 26 27  2  0
 27 28  1  0
 28 29  2  0
 29 30  1  0
 30 31  2  0
 31 32  1  0
 32 33  2  0
 33 34  1  0
 34 35  2  0
 35 36  1  0
 36 37  2  0
 11 38  1  0
 38 39  1  0
 39 40  1  0
 40 41  1  0
 41 42  1  0
 42 43  1  0
 43 44  1  0
 44 45  1  0
 45 46  1  0
 46 47  1  0
 47 48  1  0
 48 49  1  0
 49 50  1  0
 50 51  1  0
 51 52  1  0
 52 53  1  0
 53 54  1  0
 53 55  1  0
 49 56  1  0
 56 57  1  0
 57 58  2  0
 57 59  1  0
 59 60  1  0
 60 61  2  0
 61 62  1  0
 62 63  2  0
 63 64  1  0
 64 65  2  0
 65 66  1  0
 66 67  2  0
 67 68  1  0
 68 69  2  0
 69 70  1  0
 70 71  2  0
 45 72  1  0
 72 73  1  0
 73 74  1  0
 74 75  1  0
 75 76  1  0
 76 77  1  0
 77 78  1  0
 78 79  1  0
 79 80  1  0
 80 81  1  0
 81 82  2  0
 82 83  1  0
 83 84  2  0
 84 85  1  0
 85 86  2  0
 86 87  1  0
 75 88  1  0
 88 89  1  0
 89 90  2  0
 89 91  1  0
 91 92  1  0
 92 93  2  0
 93 94  1  0
 94 95  2  0
 95 96  1  0
 96 97  2  0
 97 98  1  0
 98 99  2  0
 99100  1  0
100101  2  0
101102  1  0
102103  2  0
 41104  1  0
104105  1  0
105106  2  0
105107  1  0
107108  1  0
108109  2  0
109110  1  0
110111  2  0
111112  1  0
112113  2  0
113114  1  0
114115  2  0
115116  1  0
116117  2  0
117118  1  0
118119  2  0
  2120  1  0
120121  1  0
121122  2  0
122123  1  0
123124  2  0
124125  1  0
125126  2  0
126127  1  0
127128  2  0
128129  1  0
129130  2  0
130131  1  0
131132  2  0
132  2  1  0
 37 23  1  0
 71 57  1  0
 87 79  1  0
103 89  1  0
119105  1  0
126121  1  0
132127  1  0
 31 26  1  0
 37 32  1  0
 65 60  1  0
 71 66  1  0
 86 81  1  0
 97 92  1  0
103 98  1  0
113108  1  0
119114  1  0
M  END
>  <Candidate_ID>  (398) 
CAND_R2_398

>  <Candidate_Name>  (398) 
BDHDP-boronic-catechol-2

>  <Parent_Seed_ID>  (398) 
TRAIN_107

>  <Parent_Name>  (398) 
BDHDP

>  <Transformation_Code>  (398) 
boronic_catechol

>  <Design_Family>  (398) 
P-N-B

>  <Preparation_Type>  (398) 
Additive

>  <Synthesis_Level>  (398) 
C

>  <Parent_Tanimoto_r3>  (398) 
0.8255813953488372

>  <Max_Train_Tanimoto_r3>  (398) 
0.8255813953488372

>  <Risk_Flags>  (398) 
high molecular weight; high DOPO count; exploratory only; excluded from formal screening

$$$$
CAND_R2_399 | BDHDP-boronic-catechol-all
     RDKit          2D

144164  0  0  0  0  0  0  0  0999 V2000
   13.4027  -24.0678    0.0000 O   0  0  0  0  0  0  0  0  0  0  0  0
   14.8915  -24.2507    0.0000 P   0  0  0  0  0  0  0  0  0  0  0  0
   14.6310  -22.7735    0.0000 C   0  0  0  0  0  0  0  0  0  0  0  0
   15.7801  -21.8093    0.0000 N   0  0  0  0  0  0  0  0  0  0  0  0
   17.1896  -22.3223    0.0000 C   0  0  0  0  0  0  0  0  0  0  0  0
   17.4501  -23.7995    0.0000 C   0  0  0  0  0  0  0  0  0  0  0  0
   18.9419  -23.9562    0.0000 O   0  0  0  0  0  0  0  0  0  0  0  0
   15.5196  -20.3321    0.0000 C   0  0  0  0  0  0  0  0  0  0  0  0
   14.1101  -19.8190    0.0000 C   0  0  0  0  0  0  0  0  0  0  0  0
   13.8496  -18.3418    0.0000 O   0  0  0  0  0  0  0  0  0  0  0  0
   12.4401  -17.8288    0.0000 B   0  0  0  0  0  0  0  0  0  0  0  0
   12.1796  -16.3516    0.0000 O   0  0  0  0  0  0  0  0  0  0  0  0
   10.7701  -15.8386    0.0000 C   0  0  0  0  0  0  0  0  0  0  0  0
   10.5096  -14.3614    0.0000 C   0  0  0  0  0  0  0  0  0  0  0  0
    9.1001  -13.8483    0.0000 N   0  0  0  0  0  0  0  0  0  0  0  0
    8.8396  -12.3711    0.0000 C   0  0  0  0  0  0  0  0  0  0  0  0
    7.4300  -11.8581    0.0000 C   0  0  0  0  0  0  0  0  0  0  0  0
    7.1696  -10.3809    0.0000 O   0  0  0  0  0  0  0  0  0  0  0  0
    5.7600   -9.8678    0.0000 B   0  0  0  0  0  0  0  0  0  0  0  0
    5.4996   -8.3906    0.0000 O   0  0  0  0  0  0  0  0  0  0  0  0
    4.0900   -7.8776    0.0000 C   0  0  0  0  0  0  0  0  0  0  0  0
    3.8296   -6.4004    0.0000 C   0  0  0  0  0  0  0  0  0  0  0  0
    2.4200   -5.8874    0.0000 N   0  0  0  0  0  0  0  0  0  0  0  0
    1.2709   -6.8515    0.0000 C   0  0  0  0  0  0  0  0  0  0  0  0
    1.5314   -8.3287    0.0000 C   0  0  0  0  0  0  0  0  0  0  0  0
    0.3824   -9.2929    0.0000 O   0  0  0  0  0  0  0  0  0  0  0  0
    0.6428  -10.7701    0.0000 B   0  0  0  0  0  0  0  0  0  0  0  0
   -0.3992  -11.8492    0.0000 O   0  0  0  0  0  0  0  0  0  0  0  0
    0.3050  -13.1736    0.0000 C   0  0  0  0  0  0  0  0  0  0  0  0
   -0.2080  -14.5831    0.0000 C   0  0  0  0  0  0  0  0  0  0  0  0
    0.7562  -15.7322    0.0000 C   0  0  0  0  0  0  0  0  0  0  0  0
    2.2334  -15.4717    0.0000 C   0  0  0  0  0  0  0  0  0  0  0  0
    2.7464  -14.0622    0.0000 C   0  0  0  0  0  0  0  0  0  0  0  0
    1.7823  -12.9131    0.0000 C   0  0  0  0  0  0  0  0  0  0  0  0
    1.9910  -11.4277    0.0000 O   0  0  0  0  0  0  0  0  0  0  0  0
    2.1595   -4.4101    0.0000 C   0  0  0  0  0  0  0  0  0  0  0  0
    0.7500   -3.8971    0.0000 P   0  0  0  0  0  0  0  0  0  0  0  0
    0.4895   -5.3743    0.0000 O   0  0  0  0  0  0  0  0  0  0  0  0
    1.5000   -2.5981    0.0000 O   0  0  0  0  0  0  0  0  0  0  0  0
    0.7500   -1.2990    0.0000 C   0  0  0  0  0  0  0  0  0  0  0  0
    1.5000   -0.0000    0.0000 C   0  0  0  0  0  0  0  0  0  0  0  0
    0.7500    1.2990    0.0000 C   0  0  0  0  0  0  0  0  0  0  0  0
   -0.7500    1.2990    0.0000 C   0  0  0  0  0  0  0  0  0  0  0  0
   -1.5000   -0.0000    0.0000 C   0  0  0  0  0  0  0  0  0  0  0  0
   -0.7500   -1.2990    0.0000 C   0  0  0  0  0  0  0  0  0  0  0  0
   -1.5000   -2.5981    0.0000 C   0  0  0  0  0  0  0  0  0  0  0  0
   -3.0000   -2.5981    0.0000 C   0  0  0  0  0  0  0  0  0  0  0  0
   -3.7500   -3.8971    0.0000 C   0  0  0  0  0  0  0  0  0  0  0  0
   -3.0000   -5.1962    0.0000 C   0  0  0  0  0  0  0  0  0  0  0  0
   -1.5000   -5.1962    0.0000 C   0  0  0  0  0  0  0  0  0  0  0  0
   -0.7500   -3.8971    0.0000 C   0  0  0  0  0  0  0  0  0  0  0  0
    4.6110  -10.8320    0.0000 O   0  0  0  0  0  0  0  0  0  0  0  0
    3.2014  -10.3190    0.0000 C   0  0  0  0  0  0  0  0  0  0  0  0
    2.9410   -8.8418    0.0000 C   0  0  0  0  0  0  0  0  0  0  0  0
    4.0900   -7.8776    0.0000 N   0  0  0  0  0  0  0  0  0  0  0  0
    3.8296   -6.4004    0.0000 C   0  0  0  0  0  0  0  0  0  0  0  0
    4.9786   -5.4362    0.0000 C   0  0  0  0  0  0  0  0  0  0  0  0
    4.7181   -3.9590    0.0000 O   0  0  0  0  0  0  0  0  0  0  0  0
    5.8672   -2.9948    0.0000 B   0  0  0  0  0  0  0  0  0  0  0  0
    5.7626   -1.4985    0.0000 O   0  0  0  0  0  0  0  0  0  0  0  0
    7.1534   -0.9366    0.0000 C   0  0  0  0  0  0  0  0  0  0  0  0
    7.6664    0.4730    0.0000 C   0  0  0  0  0  0  0  0  0  0  0  0
    9.1436    0.7335    0.0000 C   0  0  0  0  0  0  0  0  0  0  0  0
   10.1078   -0.4156    0.0000 C   0  0  0  0  0  0  0  0  0  0  0  0
    9.5947   -1.8252    0.0000 C   0  0  0  0  0  0  0  0  0  0  0  0
    8.1175   -2.0856    0.0000 C   0  0  0  0  0  0  0  0  0  0  0  0
    7.3227   -3.3577    0.0000 O   0  0  0  0  0  0  0  0  0  0  0  0
    5.4996   -8.3906    0.0000 C   0  0  0  0  0  0  0  0  0  0  0  0
    6.6486   -7.4264    0.0000 P   0  0  0  0  0  0  0  0  0  0  0  0
    7.3986   -8.7255    0.0000 O   0  0  0  0  0  0  0  0  0  0  0  0
    5.4996   -6.4623    0.0000 O   0  0  0  0  0  0  0  0  0  0  0  0
    5.7600   -4.9851    0.0000 C   0  0  0  0  0  0  0  0  0  0  0  0
    4.6110   -4.0209    0.0000 C   0  0  0  0  0  0  0  0  0  0  0  0
    4.8714   -2.5437    0.0000 C   0  0  0  0  0  0  0  0  0  0  0  0
    6.2810   -2.0306    0.0000 C   0  0  0  0  0  0  0  0  0  0  0  0
    7.4300   -2.9948    0.0000 C   0  0  0  0  0  0  0  0  0  0  0  0
    7.1696   -4.4720    0.0000 C   0  0  0  0  0  0  0  0  0  0  0  0
    8.3186   -5.4362    0.0000 C   0  0  0  0  0  0  0  0  0  0  0  0
    9.7282   -4.9232    0.0000 C   0  0  0  0  0  0  0  0  0  0  0  0
   10.8772   -5.8874    0.0000 C   0  0  0  0  0  0  0  0  0  0  0  0
   10.6168   -7.3646    0.0000 C   0  0  0  0  0  0  0  0  0  0  0  0
    9.2072   -7.8776    0.0000 C   0  0  0  0  0  0  0  0  0  0  0  0
    8.0582   -6.9134    0.0000 C   0  0  0  0  0  0  0  0  0  0  0  0
    7.9510  -14.8125    0.0000 C   0  0  0  0  0  0  0  0  0  0  0  0
    8.2115  -16.2897    0.0000 P   0  0  0  0  0  0  0  0  0  0  0  0
    6.7115  -16.2897    0.0000 O   0  0  0  0  0  0  0  0  0  0  0  0
    9.6210  -15.7767    0.0000 O   0  0  0  0  0  0  0  0  0  0  0  0
   10.7701  -16.7409    0.0000 C   0  0  0  0  0  0  0  0  0  0  0  0
   12.1796  -16.2278    0.0000 C   0  0  0  0  0  0  0  0  0  0  0  0
   13.3287  -17.1920    0.0000 C   0  0  0  0  0  0  0  0  0  0  0  0
   13.0682  -18.6692    0.0000 C   0  0  0  0  0  0  0  0  0  0  0  0
   11.6587  -19.1823    0.0000 C   0  0  0  0  0  0  0  0  0  0  0  0
   10.5096  -18.2181    0.0000 C   0  0  0  0  0  0  0  0  0  0  0  0
    9.1001  -18.7311    0.0000 C   0  0  0  0  0  0  0  0  0  0  0  0
    8.8396  -20.2083    0.0000 C   0  0  0  0  0  0  0  0  0  0  0  0
    7.4300  -20.7214    0.0000 C   0  0  0  0  0  0  0  0  0  0  0  0
    6.2810  -19.7572    0.0000 C   0  0  0  0  0  0  0  0  0  0  0  0
    6.5415  -18.2800    0.0000 C   0  0  0  0  0  0  0  0  0  0  0  0
    7.9510  -17.7669    0.0000 C   0  0  0  0  0  0  0  0  0  0  0  0
   11.2910  -18.7930    0.0000 O   0  0  0  0  0  0  0  0  0  0  0  0
   11.5515  -20.2702    0.0000 C   0  0  0  0  0  0  0  0  0  0  0  0
   10.4024  -21.2344    0.0000 C   0  0  0  0  0  0  0  0  0  0  0  0
   10.6629  -22.7116    0.0000 N   0  0  0  0  0  0  0  0  0  0  0  0
    9.5138  -23.6758    0.0000 C   0  0  0  0  0  0  0  0  0  0  0  0
    9.7743  -25.1530    0.0000 C   0  0  0  0  0  0  0  0  0  0  0  0
    8.6252  -26.1172    0.0000 O   0  0  0  0  0  0  0  0  0  0  0  0
    8.8857  -27.5944    0.0000 B   0  0  0  0  0  0  0  0  0  0  0  0
    7.8437  -28.6734    0.0000 O   0  0  0  0  0  0  0  0  0  0  0  0
    8.5479  -29.9978    0.0000 C   0  0  0  0  0  0  0  0  0  0  0  0
    8.0349  -31.4073    0.0000 C   0  0  0  0  0  0  0  0  0  0  0  0
    8.9991  -32.5564    0.0000 C   0  0  0  0  0  0  0  0  0  0  0  0
   10.4763  -32.2959    0.0000 C   0  0  0  0  0  0  0  0  0  0  0  0
   10.9893  -30.8864    0.0000 C   0  0  0  0  0  0  0  0  0  0  0  0
   10.0251  -29.7373    0.0000 C   0  0  0  0  0  0  0  0  0  0  0  0
   10.2339  -28.2519    0.0000 O   0  0  0  0  0  0  0  0  0  0  0  0
   12.0724  -23.2246    0.0000 C   0  0  0  0  0  0  0  0  0  0  0  0
   12.3329  -24.7018    0.0000 P   0  0  0  0  0  0  0  0  0  0  0  0
   13.6694  -24.0208    0.0000 O   0  0  0  0  0  0  0  0  0  0  0  0
   10.8329  -24.7018    0.0000 O   0  0  0  0  0  0  0  0  0  0  0  0
   10.0829  -26.0009    0.0000 C   0  0  0  0  0  0  0  0  0  0  0  0
    8.5829  -26.0009    0.0000 C   0  0  0  0  0  0  0  0  0  0  0  0
    7.8329  -27.2999    0.0000 C   0  0  0  0  0  0  0  0  0  0  0  0
    8.5829  -28.5989    0.0000 C   0  0  0  0  0  0  0  0  0  0  0  0
   10.0829  -28.5989    0.0000 C   0  0  0  0  0  0  0  0  0  0  0  0
   10.8329  -27.2999    0.0000 C   0  0  0  0  0  0  0  0  0  0  0  0
   12.3329  -27.2999    0.0000 C   0  0  0  0  0  0  0  0  0  0  0  0
   13.0829  -28.5989    0.0000 C   0  0  0  0  0  0  0  0  0  0  0  0
   14.5829  -28.5989    0.0000 C   0  0  0  0  0  0  0  0  0  0  0  0
   15.3329  -27.2999    0.0000 C   0  0  0  0  0  0  0  0  0  0  0  0
   14.5829  -26.0009    0.0000 C   0  0  0  0  0  0  0  0  0  0  0  0
   13.0829  -26.0009    0.0000 C   0  0  0  0  0  0  0  0  0  0  0  0
   16.3010  -23.7377    0.0000 O   0  0  0  0  0  0  0  0  0  0  0  0
   17.4501  -24.7018    0.0000 C   0  0  0  0  0  0  0  0  0  0  0  0
   18.8597  -24.1888    0.0000 C   0  0  0  0  0  0  0  0  0  0  0  0
   20.0087  -25.1530    0.0000 C   0  0  0  0  0  0  0  0  0  0  0  0
   19.7482  -26.6302    0.0000 C   0  0  0  0  0  0  0  0  0  0  0  0
   18.3387  -27.1432    0.0000 C   0  0  0  0  0  0  0  0  0  0  0  0
   17.1896  -26.1790    0.0000 C   0  0  0  0  0  0  0  0  0  0  0  0
   15.7801  -26.6921    0.0000 C   0  0  0  0  0  0  0  0  0  0  0  0
   15.5196  -28.1693    0.0000 C   0  0  0  0  0  0  0  0  0  0  0  0
   14.1101  -28.6823    0.0000 C   0  0  0  0  0  0  0  0  0  0  0  0
   12.9610  -27.7181    0.0000 C   0  0  0  0  0  0  0  0  0  0  0  0
   13.2215  -26.2409    0.0000 C   0  0  0  0  0  0  0  0  0  0  0  0
   14.6310  -25.7279    0.0000 C   0  0  0  0  0  0  0  0  0  0  0  0
  1  2  2  0
  2  3  1  0
  3  4  1  0
  4  5  1  0
  5  6  1  0
  6  7  1  0
  4  8  1  0
  8  9  1  0
  9 10  1  0
 10 11  1  0
 11 12  1  0
 12 13  1  0
 13 14  1  0
 14 15  1  0
 15 16  1  0
 16 17  1  0
 17 18  1  0
 18 19  1  0
 19 20  1  0
 20 21  1  0
 21 22  1  0
 22 23  1  0
 23 24  1  0
 24 25  1  0
 25 26  1  0
 26 27  1  0
 27 28  1  0
 28 29  1  0
 29 30  2  0
 30 31  1  0
 31 32  2  0
 32 33  1  0
 33 34  2  0
 34 35  1  0
 23 36  1  0
 36 37  1  0
 37 38  2  0
 37 39  1  0
 39 40  1  0
 40 41  2  0
 41 42  1  0
 42 43  2  0
 43 44  1  0
 44 45  2  0
 45 46  1  0
 46 47  2  0
 47 48  1  0
 48 49  2  0
 49 50  1  0
 50 51  2  0
 19 52  1  0
 52 53  1  0
 53 54  1  0
 54 55  1  0
 55 56  1  0
 56 57  1  0
 57 58  1  0
 58 59  1  0
 59 60  1  0
 60 61  1  0
 61 62  2  0
 62 63  1  0
 63 64  2  0
 64 65  1  0
 65 66  2  0
 66 67  1  0
 55 68  1  0
 68 69  1  0
 69 70  2  0
 69 71  1  0
 71 72  1  0
 72 73  2  0
 73 74  1  0
 74 75  2  0
 75 76  1  0
 76 77  2  0
 77 78  1  0
 78 79  2  0
 79 80  1  0
 80 81  2  0
 81 82  1  0
 82 83  2  0
 15 84  1  0
 84 85  1  0
 85 86  2  0
 85 87  1  0
 87 88  1  0
 88 89  2  0
 89 90  1  0
 90 91  2  0
 91 92  1  0
 92 93  2  0
 93 94  1  0
 94 95  2  0
 95 96  1  0
 96 97  2  0
 97 98  1  0
 98 99  2  0
 11100  1  0
100101  1  0
101102  1  0
102103  1  0
103104  1  0
104105  1  0
105106  1  0
106107  1  0
107108  1  0
108109  1  0
109110  2  0
110111  1  0
111112  2  0
112113  1  0
113114  2  0
114115  1  0
103116  1  0
116117  1  0
117118  2  0
117119  1  0
119120  1  0
120121  2  0
121122  1  0
122123  2  0
123124  1  0
124125  2  0
125126  1  0
126127  2  0
127128  1  0
128129  2  0
129130  1  0
130131  2  0
  2132  1  0
132133  1  0
133134  2  0
134135  1  0
135136  2  0
136137  1  0
137138  2  0
138139  1  0
139140  2  0
140141  1  0
141142  2  0
142143  1  0
143144  2  0
144  2  1  0
 35 27  1  0
 51 37  1  0
 67 59  1  0
 83 69  1  0
 99 85  1  0
115107  1  0
131117  1  0
138133  1  0
144139  1  0
 34 29  1  0
 45 40  1  0
 51 46  1  0
 66 61  1  0
 77 72  1  0
 83 78  1  0
 93 88  1  0
 99 94  1  0
114109  1  0
125120  1  0
131126  1  0
M  END
>  <Candidate_ID>  (399) 
CAND_R2_399

>  <Candidate_Name>  (399) 
BDHDP-boronic-catechol-all

>  <Parent_Seed_ID>  (399) 
TRAIN_107

>  <Parent_Name>  (399) 
BDHDP

>  <Transformation_Code>  (399) 
boronic_catechol_all

>  <Design_Family>  (399) 
P-N-B

>  <Preparation_Type>  (399) 
Additive

>  <Synthesis_Level>  (399) 
C

>  <Parent_Tanimoto_r3>  (399) 
0.7558139534883721

>  <Max_Train_Tanimoto_r3>  (399) 
0.7558139534883721

>  <Risk_Flags>  (399) 
high molecular weight; high DOPO count; exploratory only; excluded from formal screening

$$$$
